21
tauto -624.631480789
O   	    1.2596640000 	    2.3999300000 	    0.0000890000
C   	    1.6096400000 	    1.2326670000 	    0.0000750000
N   	    0.6383070000 	    0.1966410000 	   -0.0000760000
C   	   -0.7609220000 	    0.3150840000 	    0.0000480000
C   	   -1.5918110000 	    1.4260990000 	    0.0002510000
C   	   -2.9629400000 	    1.1839050000 	    0.0003650000
C   	   -3.4738940000 	   -0.1177370000 	    0.0002490000
C   	   -2.6360000000 	   -1.2295590000 	   -0.0000030000
C   	   -1.2692920000 	   -0.9892800000 	   -0.0000830000
N   	   -0.1781110000 	   -1.8523200000 	   -0.0004450000
C   	    0.9829140000 	   -1.1342200000 	   -0.0002340000
N   	    2.1901150000 	   -1.6208860000 	   -0.0002370000
C   	    3.1590660000 	   -0.6586190000 	   -0.0001160000
C   	    2.9461470000 	    0.6888930000 	   -0.0000150000
H   	   -1.1680960000 	    2.4229580000 	    0.0003340000
H   	   -3.6492380000 	    2.0256420000 	    0.0005390000
H   	   -4.5497760000 	   -0.2690380000 	    0.0003450000
H   	   -3.0350730000 	   -2.2396240000 	   -0.0001240000
H   	   -0.1882670000 	   -2.8594740000 	    0.0003610000
H   	    4.1767530000 	   -1.0433940000 	   -0.0001250000
H   	    3.7667590000 	    1.3960610000 	    0.0000460000
