28
tauto -849.54196521
N   	    4.4426700000 	    1.6231290000 	    0.1271080000
C   	    3.2837380000 	    0.9198320000 	    0.1205560000
N   	    2.0790610000 	    1.5327200000 	    0.2808000000
N   	    1.1088450000 	    0.5814400000 	    0.0977030000
C   	    1.6632240000 	   -0.6545190000 	   -0.0810500000
N   	    0.9284460000 	   -1.7264640000 	   -0.2308380000
C   	   -0.4075330000 	   -1.4928700000 	   -0.2067620000
C   	   -1.0529400000 	   -0.2812410000 	   -0.0449930000
C   	   -2.5331780000 	   -0.1906110000 	   -0.0172910000
C   	   -3.2037480000 	    0.9046600000 	   -0.5746150000
C   	   -4.5928460000 	    0.9574870000 	   -0.5715370000
C   	   -5.3374820000 	   -0.0768230000 	   -0.0122390000
C   	   -4.6808610000 	   -1.1639230000 	    0.5557140000
C   	   -3.2916630000 	   -1.2161530000 	    0.5588980000
C   	   -0.2536690000 	    0.9147810000 	    0.0962130000
O   	   -0.5553840000 	    2.0980800000 	    0.1962350000
C   	    3.0846360000 	   -0.4419360000 	   -0.0561470000
C   	    4.1305220000 	   -1.3914280000 	   -0.1598670000
N   	    5.0444460000 	   -2.1016640000 	   -0.2346300000
H   	    4.4742630000 	    2.4843730000 	    0.6522080000
H   	    5.2893050000 	    1.0717860000 	    0.1626110000
H   	    1.8125680000 	    2.4759980000 	    0.0242280000
H   	   -1.0177870000 	   -2.3821790000 	   -0.3531970000
H   	   -2.6295350000 	    1.7206190000 	   -1.0004430000
H   	   -5.0963010000 	    1.8148510000 	   -1.0112620000
H   	   -6.4235670000 	   -0.0311460000 	   -0.0104960000
H   	   -5.2501940000 	   -1.9708990000 	    1.0101030000
H   	   -2.7891630000 	   -2.0556970000 	    1.0340790000
