32
tauto -963.34514016
C   	   -6.8273640000 	    0.8013760000 	    0.0850470000
C   	   -5.5314010000 	    0.0380490000 	    0.1398590000
O   	   -4.5870390000 	    0.7442040000 	    0.7973210000
C   	   -3.3220070000 	    0.0975450000 	    0.9667040000
C   	   -2.4788460000 	    0.2269090000 	   -0.2902060000
O   	   -1.2081770000 	   -0.2985290000 	    0.0246070000
C   	   -0.3512570000 	   -0.3129910000 	   -1.0858500000
N   	    0.9255030000 	   -0.8142800000 	   -0.6784600000
C   	    2.0322010000 	   -0.0659600000 	   -0.3617430000
N   	    2.1787750000 	    1.2532460000 	   -0.4893870000
C   	    3.3911890000 	    1.6543040000 	   -0.1045640000
N   	    3.6445850000 	    2.9963060000 	   -0.1407680000
N   	    4.4053080000 	    0.8816140000 	    0.3488700000
C   	    4.2043930000 	   -0.4228490000 	    0.4487210000
O   	    5.2067410000 	   -1.1820080000 	    0.8916510000
C   	    2.9725350000 	   -0.9873790000 	    0.0945410000
N   	    2.4601550000 	   -2.2770900000 	    0.0797520000
C   	    1.2545190000 	   -2.1252540000 	   -0.3724330000
O   	   -5.3403910000 	   -1.0589140000 	   -0.3266340000
H   	   -6.6645600000 	    1.7870820000 	   -0.3593920000
H   	   -7.2082260000 	    0.9553770000 	    1.0989250000
H   	   -7.5530460000 	    0.2386080000 	   -0.5020200000
H   	   -3.4695320000 	   -0.9564180000 	    1.2138200000
H   	   -2.8356980000 	    0.6096090000 	    1.7990470000
H   	   -2.4036580000 	    1.2857210000 	   -0.5846630000
H   	   -2.9475890000 	   -0.3326470000 	   -1.1133290000
H   	   -0.1942360000 	    0.6978170000 	   -1.4857300000
H   	   -0.7601020000 	   -0.9587820000 	   -1.8776650000
H   	    3.0172640000 	    3.5563170000 	   -0.6954800000
H   	    4.6122970000 	    3.2735320000 	   -0.1086160000
H   	    5.9414600000 	   -0.5744860000 	    1.0753530000
H   	    0.5325090000 	   -2.9208100000 	   -0.5163190000
