12
tauto -410.827145395
N   	   -2.3324250000 	   -0.8001300000 	   -0.0704890000
C   	   -1.1213820000 	   -0.1628360000 	   -0.0038880000
N   	   -0.0039920000 	   -0.9496030000 	   -0.0088330000
N   	   -1.0885630000 	    1.1403770000 	    0.0142490000
N   	    0.1328400000 	    1.7527000000 	   -0.0038560000
C   	    1.2230650000 	    1.0619320000 	    0.0080690000
C   	    1.2796980000 	   -0.4029950000 	    0.0070350000
O   	    2.2737750000 	   -1.0985350000 	    0.0023150000
H   	   -2.4276930000 	   -1.6715500000 	    0.4313840000
H   	   -3.1064470000 	   -0.1621950000 	    0.0595030000
H   	   -0.0667130000 	   -1.9569530000 	   -0.0966150000
H   	    2.1673550000 	    1.5989560000 	    0.0024070000
