18
tauto -493.279304046
C   	   -3.3308070000 	    0.1479430000 	    0.1874750000
C   	   -1.8632030000 	   -0.1302140000 	    0.0570590000
N   	   -1.0315330000 	    0.9558640000 	    0.0099560000
C   	    0.3579170000 	    0.9052570000 	   -0.1389080000
O   	    1.0144160000 	    1.9314440000 	   -0.2104930000
N   	   -1.4164630000 	   -1.3423320000 	   -0.0041690000
C   	   -0.0537030000 	   -1.4926820000 	   -0.1179050000
C   	    0.8404800000 	   -0.4735460000 	   -0.1868050000
O   	    2.1563560000 	   -0.7344700000 	   -0.3879230000
C   	    3.0608970000 	   -0.1165480000 	    0.5262910000
H   	   -3.5456960000 	    0.6953550000 	    1.1119820000
H   	   -3.8654790000 	   -0.8019550000 	    0.2038210000
H   	   -3.6928000000 	    0.7482940000 	   -0.6545670000
H   	   -1.4141130000 	    1.8937670000 	    0.0408040000
H   	    0.3129040000 	   -2.5148340000 	   -0.1720580000
H   	    4.0500870000 	   -0.4979800000 	    0.2676830000
H   	    2.8204030000 	   -0.4049980000 	    1.5577880000
H   	    3.0350010000 	    0.9705760000 	    0.4281260000
