13
tauto -282.707968485
N   	   -2.0743780000 	    0.0097690000 	    0.1083300000
C   	   -0.6992910000 	   -0.0917980000 	   -0.0072900000
N   	   -0.0386150000 	   -1.1829970000 	    0.0464460000
C   	    1.3693290000 	   -0.8028280000 	   -0.0706360000
C   	    1.4117730000 	    0.7352080000 	    0.1057200000
N   	    0.0192110000 	    1.0961460000 	   -0.1810430000
H   	   -2.5174500000 	   -0.8964960000 	    0.0320140000
H   	   -2.4867370000 	    0.6874550000 	   -0.5195990000
H   	    1.7436700000 	   -1.0944180000 	   -1.0610570000
H   	    1.9813300000 	   -1.3225680000 	    0.6739950000
H   	    2.1026370000 	    1.2292720000 	   -0.5835750000
H   	    1.6881910000 	    1.0104720000 	    1.1330780000
H   	   -0.3460310000 	    1.8823620000 	    0.3422490000
