12
tauto -319.608316857
N   	   -2.2524890000 	   -0.0164600000 	   -0.0514890000
C   	   -0.8882850000 	    0.0072480000 	   -0.0078240000
N   	   -0.2681480000 	   -1.1788840000 	   -0.0008570000
C   	    1.0627490000 	   -1.1469960000 	    0.0022850000
N   	    1.8561730000 	   -0.0817760000 	    0.0061660000
C   	    1.2122880000 	    1.0953230000 	    0.0032050000
C   	   -0.1607840000 	    1.2109760000 	   -0.0049500000
H   	   -2.6811280000 	   -0.9090040000 	    0.1422810000
H   	   -2.7663620000 	    0.8037150000 	    0.2270570000
H   	    1.5574070000 	   -2.1176350000 	    0.0058620000
H   	    1.8400230000 	    1.9855480000 	    0.0068770000
H   	   -0.6544960000 	    2.1779100000 	   -0.0151070000
