22
tauto -566.854489218
C   	   -3.4907790000 	    0.0575960000 	    0.0541420000
C   	   -2.0342180000 	   -0.2872080000 	    0.0287770000
N   	   -1.6651470000 	   -1.5284050000 	    0.0494250000
N   	   -0.3514430000 	   -1.8755100000 	    0.0235170000
C   	    0.5478860000 	   -0.9253650000 	   -0.0172620000
N   	    1.8574840000 	   -1.2940360000 	   -0.0036650000
C   	    2.9597140000 	   -0.3795090000 	   -0.2169270000
C   	    2.6037460000 	    0.9549430000 	    0.4244460000
C   	    1.2826500000 	    1.4556890000 	   -0.1367260000
N   	    0.2524440000 	    0.4146170000 	   -0.0459100000
C   	   -1.0815190000 	    0.8253340000 	   -0.0395830000
O   	   -1.3776160000 	    2.0078320000 	   -0.0928230000
H   	   -4.0774880000 	   -0.8619410000 	    0.0990920000
H   	   -3.7695110000 	    0.6286380000 	   -0.8379410000
H   	   -3.7258840000 	    0.6866100000 	    0.9194360000
H   	    1.9906120000 	   -2.2905320000 	   -0.0895720000
H   	    3.1688320000 	   -0.2393610000 	   -1.2886730000
H   	    3.8552130000 	   -0.8067590000 	    0.2436950000
H   	    3.3847230000 	    1.6950100000 	    0.2257410000
H   	    2.5261370000 	    0.8270570000 	    1.5098550000
H   	    1.3891770000 	    1.7497190000 	   -1.1879910000
H   	    0.9008770000 	    2.3233610000 	    0.4041750000
