14
tauto -374.96882888
N   	   -2.3110080000 	   -0.9949960000 	   -0.0595960000
C   	   -1.1475950000 	   -0.2765660000 	   -0.0086320000
C   	   -1.1485070000 	    1.1307970000 	   -0.0035140000
C   	    0.0942550000 	    1.7296790000 	   -0.0002880000
N   	    1.2493510000 	    1.0594170000 	    0.0039690000
C   	    1.1215710000 	   -0.2740270000 	    0.0086430000
N   	    2.2797440000 	   -0.9957260000 	    0.0575610000
N   	   -0.0164240000 	   -0.9818070000 	    0.0001600000
H   	   -3.1624050000 	   -0.5468680000 	    0.2392820000
H   	   -2.2227650000 	   -1.9756770000 	    0.1610040000
H   	   -2.0679810000 	    1.7059670000 	   -0.0181020000
H   	    0.1789960000 	    2.8161900000 	   -0.0032050000
H   	    3.1245760000 	   -0.4985880000 	   -0.1746570000
H   	    2.2195850000 	   -1.9685420000 	   -0.1962320000
