11
tauto -281.494354278
N   	    2.0658010000 	   -0.1285690000 	   -0.0000040000
C   	    0.6650960000 	    0.0566460000 	   -0.0000230000
C   	   -0.1824920000 	    1.1329070000 	    0.0000030000
N   	   -1.4940140000 	    0.7241590000 	    0.0000110000
C   	   -1.4442280000 	   -0.5858180000 	    0.0000050000
N   	   -0.1658500000 	   -1.0427890000 	   -0.0000090000
H   	    0.1573880000 	   -1.9977840000 	   -0.0000340000
H   	    2.4951750000 	    0.2855820000 	    0.8199310000
H   	    2.4952310000 	    0.2858330000 	   -0.8197830000
H   	    0.0802430000 	    2.1837310000 	   -0.0000070000
H   	   -2.2998530000 	   -1.2493800000 	    0.0000080000
