28
tauto -724.279563588
C   	    5.1602130000 	   -1.0742040000 	    0.9117670000
C   	    4.5086860000 	   -1.0629780000 	   -0.4573730000
O   	    3.0854340000 	   -0.8574520000 	   -0.3563700000
C   	    2.6873600000 	    0.4079770000 	   -0.2056320000
C   	    1.2234400000 	    0.5214780000 	   -0.1138280000
C   	    0.1788780000 	   -0.3756370000 	   -0.1518160000
C   	   -0.9803280000 	    0.4205530000 	   -0.0099650000
C   	   -2.3950850000 	   -0.0023840000 	    0.0159840000
C   	   -3.4130500000 	    0.9522810000 	    0.0992370000
C   	   -4.7453170000 	    0.5600830000 	    0.1224830000
C   	   -5.0817020000 	   -0.7901870000 	    0.0625420000
C   	   -4.0741520000 	   -1.7459240000 	   -0.0199380000
C   	   -2.7398930000 	   -1.3543080000 	   -0.0424010000
N   	   -0.6554000000 	    1.7121930000 	    0.1060600000
N   	    0.6679720000 	    1.7458690000 	    0.0411750000
H   	    1.1709120000 	    2.6191910000 	    0.1037070000
O   	    3.4227360000 	    1.3717770000 	   -0.1531240000
H   	    6.2264340000 	   -1.3026740000 	    0.8122890000
H   	    4.7020870000 	   -1.8340700000 	    1.5520290000
H   	    5.0611710000 	   -0.0965790000 	    1.3908290000
H   	    4.6049080000 	   -2.0286540000 	   -0.9581650000
H   	    4.9308820000 	   -0.2803900000 	   -1.0929800000
H   	    0.2590990000 	   -1.4463180000 	   -0.2710520000
H   	   -3.1448120000 	    2.0038010000 	    0.1452030000
H   	   -5.5263240000 	    1.3135420000 	    0.1867860000
H   	   -6.1247980000 	   -1.0955560000 	    0.0803640000
H   	   -4.3256420000 	   -2.8025200000 	   -0.0665370000
H   	   -1.9615650000 	   -2.1113050000 	   -0.1035090000
