12
tauto -410.839947938
N   	    2.3433420000 	   -0.8132040000 	   -0.0005780000
C   	    1.1064810000 	   -0.2724430000 	   -0.0002320000
C   	    0.9851190000 	    1.1751210000 	   -0.0002440000
N   	   -0.1789980000 	    1.7326920000 	   -0.0000470000
N   	   -1.2196810000 	    0.9104330000 	    0.0002550000
N   	    0.0709640000 	   -1.0668180000 	    0.0000440000
C   	   -1.1853570000 	   -0.4996590000 	    0.0000360000
O   	   -2.2332400000 	   -1.1085960000 	    0.0001320000
H   	    3.1765280000 	   -0.2504190000 	    0.0024970000
H   	    2.4236820000 	   -1.8182160000 	    0.0014540000
H   	    1.8502970000 	    1.8312510000 	   -0.0004250000
H   	   -2.1314390000 	    1.3463200000 	    0.0003290000
