21
tauto -624.626948473
O   	    0.4231190000 	    2.5070230000 	    0.0000860000
C   	    0.2888660000 	    1.2976830000 	   -0.0002190000
N   	    1.4148330000 	    0.4558760000 	   -0.0000770000
C   	    2.7616230000 	    0.8365380000 	    0.0000490000
C   	    3.4844750000 	   -0.2966990000 	    0.0001270000
N   	    2.6023410000 	   -1.3740190000 	   -0.0000020000
C   	    1.3138160000 	   -0.9203660000 	   -0.0000460000
N   	    0.2309840000 	   -1.6292850000 	   -0.0000730000
C   	   -0.9319660000 	   -0.8835260000 	   -0.0000530000
C   	   -0.9559910000 	    0.5310610000 	   -0.0000720000
C   	   -2.1777330000 	    1.2264070000 	    0.0000050000
C   	   -3.3700520000 	    0.5387790000 	    0.0000680000
C   	   -3.3544530000 	   -0.8685970000 	    0.0000740000
C   	   -2.1667460000 	   -1.5657810000 	    0.0000210000
H   	    3.0370910000 	    1.8788100000 	    0.0000320000
H   	    4.5539170000 	   -0.4418680000 	    0.0001980000
H   	    2.8319410000 	   -2.3540220000 	    0.0001590000
H   	   -2.1429360000 	    2.3125070000 	   -0.0000180000
H   	   -4.3151560000 	    1.0740800000 	    0.0001050000
H   	   -4.2947050000 	   -1.4151140000 	    0.0001290000
H   	   -2.1432520000 	   -2.6515740000 	    0.0000440000
