20
tauto -515.342972514
O   	    3.3268280000 	   -0.8384170000 	   -0.0865470000
C   	    2.1157020000 	   -0.2362190000 	   -0.0252820000
C   	    1.9837900000 	    1.1548530000 	    0.0443570000
C   	    0.6951140000 	    1.6635600000 	    0.0837620000
C   	   -0.4108460000 	    0.8202310000 	    0.0694510000
C   	   -1.8329100000 	    1.3321440000 	    0.0695850000
C   	   -2.7762180000 	    0.2357500000 	   -0.4202050000
C   	   -2.4280760000 	   -1.0614360000 	    0.2907820000
O   	   -1.1043170000 	   -1.4935960000 	   -0.0089290000
C   	   -0.1301160000 	   -0.5547570000 	    0.0170110000
N   	    1.0911720000 	   -1.0692320000 	   -0.0379870000
H   	    4.0117190000 	   -0.1581270000 	   -0.0710470000
H   	    2.8519830000 	    1.8084490000 	    0.0536620000
H   	    0.5404340000 	    2.7409360000 	    0.1179410000
H   	   -1.9106770000 	    2.2241930000 	   -0.5630730000
H   	   -2.1261210000 	    1.6402970000 	    1.0828980000
H   	   -2.6630130000 	    0.0885760000 	   -1.5009220000
H   	   -3.8226920000 	    0.4951430000 	   -0.2265630000
H   	   -3.0736100000 	   -1.8864460000 	   -0.0192460000
H   	   -2.5249460000 	   -0.9370510000 	    1.3792990000
