16
tauto -542.349483961
C   	    2.7344550000 	    1.2752080000 	    0.0002860000
C   	    1.3914440000 	    0.6276030000 	   -0.0002110000
N   	    0.3440410000 	    1.3802420000 	   -0.0002470000
N   	   -0.8216310000 	    0.6725010000 	   -0.0001650000
C   	   -2.1081970000 	    1.1573920000 	    0.0000050000
N   	   -2.9663940000 	    0.1906740000 	    0.0001330000
N   	   -2.2077560000 	   -0.9474660000 	    0.0001550000
C   	   -0.8776010000 	   -0.6947350000 	    0.0000360000
N   	    0.1302400000 	   -1.5161790000 	    0.0000010000
C   	    1.3620850000 	   -0.8928850000 	   -0.0001140000
O   	    2.4228030000 	   -1.4881610000 	   -0.0000490000
H   	    2.6350590000 	    2.3623020000 	   -0.0004220000
H   	    3.3022300000 	    0.9458950000 	   -0.8750800000
H   	    3.3010710000 	    0.9470380000 	    0.8768540000
H   	   -2.3399610000 	    2.2120450000 	   -0.0000820000
H   	   -2.6434400000 	   -1.8558940000 	   -0.0000290000
