15
tauto -420.637621872
O   	   -1.6235570000 	   -1.5353800000 	   -0.5433150000
C   	   -0.8214400000 	   -0.8316570000 	    0.0151110000
C   	    0.4012690000 	   -1.3615240000 	    0.7398290000
C   	    1.6467000000 	   -1.0898080000 	   -0.0601590000
C   	    2.0618190000 	    0.1321670000 	   -0.4121770000
C   	    1.4056150000 	    1.3925310000 	   -0.0542220000
C   	    0.1050730000 	    1.6334600000 	    0.1868530000
C   	   -1.0382130000 	    0.7013570000 	    0.0467470000
O   	   -2.1751600000 	    1.1168630000 	   -0.0178530000
H   	    0.2604720000 	   -2.4308340000 	    0.9079900000
H   	    0.4717460000 	   -0.8523930000 	    1.7131880000
H   	    2.2327150000 	   -1.9523040000 	   -0.3679340000
H   	    2.9952930000 	    0.2259930000 	   -0.9629120000
H   	    2.0733080000 	    2.2519330000 	   -0.0000030000
H   	   -0.2087470000 	    2.6465760000 	    0.4271230000
