38
tauto -896.57516234
C   	    5.4326810000 	   -0.2980030000 	    0.9565350000
C   	    4.8329250000 	   -0.5266020000 	   -0.4178750000
O   	    3.4118810000 	   -0.7358110000 	   -0.3376390000
C   	    2.6683190000 	    0.3683610000 	   -0.2486680000
C   	    1.2004420000 	    0.0431170000 	   -0.1639140000
N   	    0.7372660000 	   -1.1498900000 	   -0.1455840000
C   	   -0.7118280000 	   -0.9964100000 	   -0.0499570000
C   	   -1.1909620000 	   -1.6853880000 	    1.2464290000
C   	   -2.7085210000 	   -1.8673910000 	    1.3359310000
C   	   -3.2626510000 	   -2.5700420000 	    0.0945020000
C   	   -2.8721500000 	   -1.8337420000 	   -1.1888790000
C   	   -1.3551910000 	   -1.6529220000 	   -1.2910200000
C   	   -0.8498510000 	    0.5242780000 	   -0.0243290000
N   	   -2.0528350000 	    1.1679360000 	    0.0616660000
C   	   -2.3601360000 	    2.5425330000 	    0.0890870000
C   	   -1.2376630000 	    3.5349040000 	   -0.0057300000
O   	   -3.5297130000 	    2.8453080000 	    0.1844200000
N   	    0.2966370000 	    1.1179820000 	   -0.0943450000
O   	    3.0948460000 	    1.4973900000 	   -0.2390000000
H   	    6.5219110000 	   -0.2170750000 	    0.8778950000
H   	    5.1942230000 	   -1.1314810000 	    1.6241850000
H   	    5.0493910000 	    0.6287850000 	    1.3917520000
H   	    5.2140380000 	   -1.4424020000 	   -0.8750130000
H   	    5.0290850000 	    0.3200570000 	   -1.0813170000
H   	   -0.8053820000 	   -1.1359390000 	    2.1132280000
H   	   -0.7088090000 	   -2.6700560000 	    1.2577480000
H   	   -3.2105320000 	   -0.8998770000 	    1.4780490000
H   	   -2.9405920000 	   -2.4498420000 	    2.2348630000
H   	   -4.3523800000 	   -2.6633350000 	    0.1644690000
H   	   -2.8587650000 	   -3.5915170000 	    0.0544090000
H   	   -3.3861240000 	   -0.8636540000 	   -1.2399720000
H   	   -3.2189730000 	   -2.3932510000 	   -2.0651270000
H   	   -1.0830290000 	   -1.0810130000 	   -2.1859460000
H   	   -0.8810810000 	   -2.6367440000 	   -1.3895550000
H   	   -2.8878920000 	    0.6026010000 	    0.1243320000
H   	   -0.5229020000 	    3.3974370000 	    0.8092510000
H   	   -1.6789190000 	    4.5316390000 	    0.0279400000
H   	   -0.6693340000 	    3.3922110000 	   -0.9282620000
