37
tauto -1008.42228836
C   	   -4.2087470000 	   -2.3749050000 	    1.1960930000
C   	   -3.5796580000 	   -2.2321820000 	   -0.1941610000
C   	   -2.3922650000 	   -1.3232860000 	   -0.1775830000
N   	   -1.1429670000 	   -1.8255030000 	   -0.1622920000
N   	   -0.2516820000 	   -0.8089340000 	   -0.1158530000
C   	   -2.3039140000 	    0.0610950000 	   -0.1374500000
C   	   -3.4705870000 	    0.9516980000 	   -0.1512700000
O   	   -3.1282600000 	    2.2407700000 	   -0.1749060000
C   	   -4.2222510000 	    3.1585590000 	   -0.1877290000
O   	   -4.6222530000 	    0.5591400000 	   -0.1442130000
C   	   -0.9043270000 	    0.3932160000 	   -0.1024370000
N   	   -0.2322910000 	    1.5258900000 	   -0.0699990000
C   	    1.1082650000 	    1.3793430000 	   -0.0426640000
C   	    1.8438580000 	    0.2022320000 	   -0.0352960000
C   	    3.3252350000 	    0.2164780000 	    0.0314490000
C   	    4.0906800000 	   -0.7488090000 	   -0.6341940000
C   	    5.4793820000 	   -0.7016800000 	   -0.5915380000
C   	    6.1309670000 	    0.3049420000 	    0.1149700000
C   	    5.3804470000 	    1.2613440000 	    0.7914350000
C   	    3.9916270000 	    1.2123480000 	    0.7553240000
C   	    1.1353140000 	   -1.0470080000 	   -0.0985910000
O   	    1.5098550000 	   -2.2152490000 	   -0.1381960000
H   	   -5.0483340000 	   -3.0750180000 	    1.1560520000
H   	   -4.5849480000 	   -1.4066170000 	    1.5354280000
H   	   -3.4838890000 	   -2.7508510000 	    1.9257490000
H   	   -4.3172220000 	   -1.8153390000 	   -0.8838650000
H   	   -3.2692530000 	   -3.2112160000 	   -0.5785290000
H   	   -0.7713320000 	   -2.7662830000 	   -0.1949060000
H   	   -4.8426580000 	    3.0027150000 	   -1.0738440000
H   	   -3.7686150000 	    4.1490530000 	   -0.2047960000
H   	   -4.8391990000 	    3.0317050000 	    0.7054590000
H   	    1.6586700000 	    2.3191020000 	   -0.0395800000
H   	    3.5899660000 	   -1.5443830000 	   -1.1757080000
H   	    6.0563910000 	   -1.4588130000 	   -1.1168610000
H   	    7.2170810000 	    0.3382660000 	    0.1467280000
H   	    5.8765030000 	    2.0435480000 	    1.3607610000
H   	    3.4165210000 	    1.9463540000 	    1.3153020000
