18
tauto -547.461950434
C   	   -3.7222780000 	   -0.2316750000 	    0.0128340000
C   	   -2.2954250000 	    0.2622370000 	   -0.0064180000
N   	   -1.3509930000 	   -0.7448630000 	   -0.0088180000
C   	    0.0365120000 	   -0.6234790000 	   -0.0044340000
N   	    0.5748220000 	    0.6150330000 	   -0.0025540000
N   	    0.7154220000 	   -1.7319840000 	   -0.0026150000
C   	    2.0790950000 	   -1.5774630000 	    0.0016100000
C   	    2.7270190000 	   -0.3869480000 	    0.0042670000
C   	    1.9684210000 	    0.8490160000 	    0.0024210000
O   	    2.3928020000 	    1.9877980000 	    0.0045910000
O   	   -1.9991790000 	    1.4439480000 	   -0.0085440000
H   	   -3.9034790000 	   -0.9502370000 	   -0.7929160000
H   	   -4.3869380000 	    0.6241920000 	   -0.1038670000
H   	   -3.9371520000 	   -0.7261600000 	    0.9662160000
H   	   -1.6502260000 	   -1.7108930000 	   -0.0073650000
H   	   -0.0523030000 	    1.4178980000 	   -0.0048330000
H   	    2.6383110000 	   -2.5104730000 	    0.0028330000
H   	    3.8079890000 	   -0.3157210000 	    0.0077900000
