34
tauto -782.802177409
C   	   -0.3218760000 	    2.6582360000 	   -0.2256750000
N   	    0.3450270000 	    1.3896860000 	    0.0656970000
C   	   -0.1155610000 	    0.1852220000 	   -0.6166120000
C   	   -1.5599810000 	   -0.0990340000 	   -0.2464540000
C   	   -2.5141550000 	   -0.3299720000 	   -1.2330730000
C   	   -3.8370860000 	   -0.6055080000 	   -0.8894550000
C   	   -4.2129420000 	   -0.6444950000 	    0.4478320000
C   	   -3.2623160000 	   -0.4098640000 	    1.4409720000
C   	   -1.9441210000 	   -0.1411890000 	    1.0961350000
C   	    0.8255990000 	   -0.9622500000 	   -0.2720290000
C   	    0.4171730000 	   -2.2917610000 	   -0.2535100000
C   	    1.3221070000 	   -3.3198900000 	   -0.0052530000
C   	    2.6576280000 	   -3.0137500000 	    0.2345490000
C   	    3.0847840000 	   -1.6920180000 	    0.2312680000
C   	    2.1734350000 	   -0.6672000000 	   -0.0232510000
N   	    2.5897180000 	    0.6630690000 	   -0.0540250000
C   	    1.7023540000 	    1.7058750000 	    0.0295730000
N   	    2.0344040000 	    2.9385780000 	    0.0972160000
C   	    0.7661020000 	    3.6658520000 	    0.1972970000
H   	   -1.2600270000 	    2.7534400000 	    0.3273790000
H   	   -0.5425800000 	    2.7300120000 	   -1.3043900000
H   	   -0.0773850000 	    0.3472500000 	   -1.7119320000
H   	   -2.2228420000 	   -0.2913610000 	   -2.2814230000
H   	   -4.5729400000 	   -0.7830220000 	   -1.6696220000
H   	   -5.2446290000 	   -0.8539710000 	    0.7186780000
H   	   -3.5518190000 	   -0.4378490000 	    2.4885110000
H   	   -1.1973110000 	    0.0465840000 	    1.8641070000
H   	   -0.6289780000 	   -2.5231360000 	   -0.4381690000
H   	    0.9836180000 	   -4.3519540000 	    0.0024800000
H   	    3.3747160000 	   -3.8061190000 	    0.4329240000
H   	    4.1264810000 	   -1.4476420000 	    0.4281900000
H   	    3.5578950000 	    0.8945350000 	    0.1074250000
H   	    0.7759010000 	    4.5598070000 	   -0.4340710000
H   	    0.6089960000 	    3.9945750000 	    1.2338050000
