22
tauto -695.940017844
O   	   -0.0802720000 	    2.5074710000 	    0.0817320000
C   	    0.0085620000 	    1.3041530000 	    0.0425560000
N   	   -1.1603770000 	    0.4839990000 	    0.0105360000
N   	   -2.3411550000 	    1.1718050000 	   -0.3459270000
N   	   -3.4184440000 	    0.5950430000 	   -0.1980630000
C   	   -3.4071500000 	   -0.7467300000 	    0.3995120000
N   	   -2.2981050000 	   -1.4980520000 	   -0.1201850000
C   	   -1.0727310000 	   -0.9084090000 	   -0.0420750000
N   	    0.0162520000 	   -1.5888340000 	   -0.0538980000
C   	    1.2095040000 	   -0.8759810000 	   -0.0287140000
C   	    1.2539430000 	    0.5260540000 	    0.0346780000
C   	    2.4790940000 	    1.2032260000 	    0.0713010000
C   	    3.6620710000 	    0.4908190000 	    0.0456390000
C   	    3.6236610000 	   -0.9096340000 	   -0.0183080000
C   	    2.4188350000 	   -1.5865990000 	   -0.0548760000
H   	   -4.3451830000 	   -1.2370580000 	    0.1399570000
H   	   -3.3668600000 	   -0.6005640000 	    1.4918470000
H   	   -2.2965140000 	   -2.5068520000 	   -0.0826870000
H   	    2.4640740000 	    2.2884090000 	    0.1195600000
H   	    4.6157690000 	    1.0096510000 	    0.0751930000
H   	    4.5539570000 	   -1.4720000000 	   -0.0391640000
H   	    2.3749980000 	   -2.6704610000 	   -0.1040930000
