19
tauto -564.682871674
C   	    3.1790120000 	   -1.3526490000 	   -0.0002020000
N   	    2.6639470000 	    0.0009190000 	    0.0000180000
C   	    1.4062800000 	    0.1558260000 	    0.0000990000
N   	    0.8330000000 	    1.4130660000 	    0.0001150000
N   	    0.4387560000 	   -0.8512830000 	    0.0002670000
C   	   -0.8970380000 	   -0.5524380000 	   -0.0000030000
O   	   -1.6359290000 	   -1.6548230000 	    0.0000720000
C   	   -3.0559980000 	   -1.4549040000 	   -0.0000420000
N   	   -1.4063750000 	    0.6246680000 	   -0.0002470000
C   	   -0.5324960000 	    1.7138950000 	   -0.0002220000
O   	   -0.9030790000 	    2.8638150000 	    0.0000960000
H   	    4.2708100000 	   -1.3169570000 	   -0.0036280000
H   	    2.8699320000 	   -1.9235590000 	   -0.8904190000
H   	    2.8753170000 	   -1.9212830000 	    0.8932630000
H   	    1.4732290000 	    2.1948150000 	    0.0000730000
H   	    0.7186380000 	   -1.8204800000 	    0.0007550000
H   	   -3.4836610000 	   -2.4570290000 	    0.0013080000
H   	   -3.3581130000 	   -0.8999130000 	   -0.8903840000
H   	   -3.3579450000 	   -0.8975030000 	    0.8888390000
