22
tauto -699.853889817
O   	    4.2020440000 	   -0.7824740000 	   -0.0002700000
C   	    3.0460440000 	   -0.4465870000 	   -0.0002740000
C   	    1.8158760000 	   -1.3586970000 	    0.0002760000
N   	    0.7225380000 	   -0.4097670000 	    0.0011710000
C   	   -0.6445740000 	   -0.6636280000 	    0.0004690000
C   	   -1.4864030000 	    0.4551420000 	    0.0000470000
C   	   -2.8677490000 	    0.2612400000 	   -0.0004830000
C   	   -3.3992510000 	   -1.0187290000 	   -0.0006360000
C   	   -2.5438810000 	   -2.1235770000 	   -0.0002140000
C   	   -1.1663480000 	   -1.9585210000 	    0.0003770000
N   	    2.5479180000 	    0.8402590000 	   -0.0008310000
C   	    1.1631050000 	    0.8848070000 	    0.0000730000
N   	    0.4768790000 	    1.9681340000 	   -0.0002750000
C   	   -0.9203290000 	    1.8399910000 	    0.0001880000
O   	   -1.6424090000 	    2.8153240000 	    0.0005290000
H   	    1.8181830000 	   -1.9946710000 	    0.8924240000
H   	    1.8169270000 	   -1.9943510000 	   -0.8921110000
H   	   -3.4982190000 	    1.1457530000 	   -0.0007690000
H   	   -4.4753520000 	   -1.1650830000 	   -0.0010700000
H   	   -2.9576030000 	   -3.1285960000 	   -0.0003350000
H   	   -0.5051580000 	   -2.8211770000 	    0.0007480000
H   	    3.1138580000 	    1.6763010000 	   -0.0003550000
