51
tauto -1205.46983305
C   	    4.3094320000 	   -0.6700800000 	   -2.8986690000
C   	    3.3577290000 	    0.3247910000 	   -3.1038310000
C   	    2.3371620000 	    0.5199620000 	   -2.1788290000
C   	    2.2634520000 	   -0.2727900000 	   -1.0358580000
C   	    1.0895550000 	   -0.1127430000 	   -0.0609240000
C   	    1.5605030000 	   -0.2421660000 	    1.3965030000
C   	    2.5065640000 	    0.6734140000 	    1.8682100000
C   	    2.9483110000 	    0.6168620000 	    3.1818500000
C   	    2.4518190000 	   -0.3584460000 	    4.0471680000
C   	    1.5105840000 	   -1.2683610000 	    3.5860650000
C   	    1.0643280000 	   -1.2088660000 	    2.2649930000
N   	    0.4838130000 	    1.1959470000 	   -0.2118740000
C   	   -0.7938130000 	    1.2906190000 	   -0.1166930000
C   	   -1.4066750000 	    2.6503750000 	   -0.1818100000
C   	   -2.7932100000 	    2.8051470000 	   -0.2118570000
C   	   -3.3550460000 	    4.0761630000 	   -0.2831110000
C   	   -2.5370310000 	    5.2007200000 	   -0.3224420000
C   	   -1.1516780000 	    5.0511380000 	   -0.2894240000
C   	   -0.5893930000 	    3.7837070000 	   -0.2193600000
N   	   -1.7043210000 	    0.2408010000 	   -0.0012990000
C   	   -1.2078150000 	   -0.9390380000 	   -0.2208830000
C   	   -2.1233720000 	   -2.1119890000 	   -0.2939110000
C   	   -1.7877370000 	   -3.2732210000 	   -0.9935680000
C   	   -2.6726600000 	   -4.3453460000 	   -1.0372700000
C   	   -3.8951170000 	   -4.2665980000 	   -0.3778060000
C   	   -4.2365890000 	   -3.1076790000 	    0.3154640000
C   	   -3.3588780000 	   -2.0321630000 	    0.3520360000
N   	    0.1115260000 	   -1.1511060000 	   -0.4073810000
C   	    3.2234830000 	   -1.2646080000 	   -0.8296390000
C   	    4.2398850000 	   -1.4657560000 	   -1.7590430000
H   	    5.1064640000 	   -0.8214720000 	   -3.6223490000
H   	    3.4096890000 	    0.9536020000 	   -3.9892360000
H   	    1.5931840000 	    1.2972110000 	   -2.3265200000
H   	    2.8869790000 	    1.4350560000 	    1.1920480000
H   	    3.6831140000 	    1.3357650000 	    3.5354750000
H   	    2.7987280000 	   -0.4039170000 	    5.0763770000
H   	    1.1129960000 	   -2.0289280000 	    4.2534760000
H   	    0.3190100000 	   -1.9224590000 	    1.9227840000
H   	   -3.4192860000 	    1.9194800000 	   -0.1815840000
H   	   -4.4362120000 	    4.1879080000 	   -0.3091580000
H   	   -2.9771530000 	    6.1935090000 	   -0.3781630000
H   	   -0.5083190000 	    5.9272310000 	   -0.3164150000
H   	    0.4875590000 	    3.6482480000 	   -0.1904450000
H   	   -0.8514980000 	   -3.3408590000 	   -1.5438690000
H   	   -2.4081710000 	   -5.2405170000 	   -1.5936730000
H   	   -4.5853670000 	   -5.1056260000 	   -0.4095830000
H   	   -5.1931000000 	   -3.0405850000 	    0.8268870000
H   	   -3.6104170000 	   -1.1149990000 	    0.8755420000
H   	    0.4570520000 	   -2.0877460000 	   -0.5507550000
H   	    3.1901680000 	   -1.8701640000 	    0.0746100000
H   	    4.9847050000 	   -2.2385290000 	   -1.5857320000
