41
tauto -974.47912293
C   	    4.5423370000 	   -2.9177120000 	    0.7464130000
C   	    3.2878080000 	   -3.1007790000 	    1.3225090000
C   	    2.1759680000 	   -2.4441550000 	    0.8044290000
C   	    2.3119350000 	   -1.6026120000 	   -0.2968560000
C   	    1.1257970000 	   -0.8297560000 	   -0.8413450000
N   	   -0.1390320000 	   -1.4391130000 	   -0.5089690000
C   	   -1.1477300000 	   -0.6470110000 	   -0.4363500000
C   	   -2.4997410000 	   -1.2337700000 	   -0.1964060000
C   	   -3.6317440000 	   -0.4191600000 	   -0.1443550000
C   	   -4.8878160000 	   -0.9773040000 	    0.0728670000
C   	   -5.0220890000 	   -2.3512350000 	    0.2434020000
C   	   -3.8943940000 	   -3.1689670000 	    0.1916640000
C   	   -2.6411140000 	   -2.6143830000 	   -0.0298020000
N   	   -1.1199750000 	    0.7487480000 	   -0.5155010000
C   	    0.0523190000 	    1.2783850000 	   -0.3194910000
C   	    0.1741980000 	    2.7348210000 	   -0.0488720000
C   	    1.3536770000 	    3.4291880000 	   -0.3266570000
C   	    1.4465850000 	    4.7895700000 	   -0.0526050000
C   	    0.3604150000 	    5.4630750000 	    0.4975690000
C   	   -0.8217870000 	    4.7763300000 	    0.7664590000
C   	   -0.9162380000 	    3.4181050000 	    0.4932470000
N   	    1.1849240000 	    0.5439050000 	   -0.3298960000
C   	    3.5687400000 	   -1.4264560000 	   -0.8753910000
C   	    4.6824470000 	   -2.0791880000 	   -0.3556510000
H   	    5.4092650000 	   -3.4328590000 	    1.1523750000
H   	    3.1744090000 	   -3.7613200000 	    2.1785150000
H   	    1.1882140000 	   -2.5877150000 	    1.2334090000
H   	    1.2126860000 	   -0.7901510000 	   -1.9411730000
H   	   -3.5130010000 	    0.6504790000 	   -0.2826750000
H   	   -5.7645860000 	   -0.3352700000 	    0.1083240000
H   	   -6.0036420000 	   -2.7870780000 	    0.4137010000
H   	   -3.9950940000 	   -4.2436170000 	    0.3218950000
H   	   -1.7533140000 	   -3.2374650000 	   -0.0809380000
H   	    2.1928580000 	    2.9153270000 	   -0.7899290000
H   	    2.3649480000 	    5.3250310000 	   -0.2780620000
H   	    0.4331160000 	    6.5263310000 	    0.7115520000
H   	   -1.6717530000 	    5.3017520000 	    1.1936100000
H   	   -1.8274650000 	    2.8631260000 	    0.6943340000
H   	    2.0230470000 	    0.8789280000 	    0.1211470000
H   	    3.6743590000 	   -0.7820740000 	   -1.7476340000
H   	    5.6570960000 	   -1.9401160000 	   -0.8165580000
