14
tauto -487.034207658
O   	    1.4610360000 	    2.0745140000 	    0.0000640000
C   	    1.1693870000 	    0.9010000000 	   -0.0001380000
N   	   -0.1990400000 	    0.4764560000 	   -0.0000550000
N   	   -1.2791540000 	    1.3229650000 	   -0.0000550000
C   	   -2.2966670000 	    0.5266330000 	    0.0001120000
N   	   -1.9341600000 	   -0.7970920000 	   -0.0000220000
C   	   -0.5653540000 	   -0.8377800000 	   -0.0000290000
N   	    0.2122490000 	   -1.8800830000 	   -0.0000290000
C   	    1.5353400000 	   -1.5344080000 	    0.0000400000
C   	    2.0311310000 	   -0.2629600000 	    0.0000400000
H   	   -3.3249350000 	    0.8592580000 	    0.0001800000
H   	   -2.5267110000 	   -1.6123830000 	    0.0000350000
H   	    2.2227100000 	   -2.3775180000 	    0.0001200000
H   	    3.0983610000 	   -0.0760900000 	    0.0001330000
