33
tauto -743.953280463
C   	   -4.9251100000 	   -0.9637950000 	    0.8408400000
C   	   -4.3188020000 	   -0.8128240000 	   -0.5418830000
O   	   -2.8859460000 	   -0.7303460000 	   -0.4754390000
C   	   -2.3892000000 	    0.4735560000 	   -0.1744630000
C   	   -0.8845620000 	    0.4538220000 	   -0.1060490000
N   	   -0.1954290000 	   -0.6265240000 	   -0.1735240000
C   	    1.1936690000 	   -0.1913850000 	   -0.0423960000
C   	    1.9653100000 	   -0.5934300000 	   -1.3156660000
C   	    3.4807910000 	   -0.4181030000 	   -1.1949050000
C   	    4.0314650000 	   -1.1506310000 	    0.0309590000
C   	    3.3230220000 	   -0.7089680000 	    1.3137340000
C   	    1.8047130000 	   -0.8685990000 	    1.2013070000
C   	    1.0255610000 	    1.3177450000 	    0.1022100000
N   	    2.0270910000 	    2.2177340000 	    0.2122220000
N   	   -0.2224560000 	    1.6751250000 	    0.0624060000
O   	   -3.0497000000 	    1.4645060000 	    0.0219200000
H   	   -6.0079250000 	   -1.1063820000 	    0.7596460000
H   	   -4.7388690000 	   -0.0675330000 	    1.4385230000
H   	   -4.4986580000 	   -1.8309490000 	    1.3541960000
H   	   -4.7031630000 	    0.0783120000 	   -1.0456610000
H   	   -4.5103970000 	   -1.6919780000 	   -1.1613560000
H   	    1.5692690000 	   -0.0329310000 	   -2.1702590000
H   	    1.7331400000 	   -1.6504750000 	   -1.4939290000
H   	    3.7366990000 	    0.6494780000 	   -1.1437970000
H   	    3.9578800000 	   -0.7965760000 	   -2.1062640000
H   	    5.1127380000 	   -0.9918120000 	    0.1189520000
H   	    3.8804610000 	   -2.2310770000 	   -0.1028450000
H   	    3.5861950000 	    0.3334410000 	    1.5471780000
H   	    3.6815070000 	   -1.2968840000 	    2.1666130000
H   	    1.2998960000 	   -0.4979480000 	    2.1012150000
H   	    1.5589910000 	   -1.9341090000 	    1.1180610000
H   	    2.9600060000 	    1.9326720000 	    0.4541920000
H   	    1.7618100000 	    3.1728040000 	    0.4038400000
