14
tauto -469.97105198
O   	   -2.7140190000 	   -0.8911760000 	    0.0680750000
N   	   -2.1171790000 	    0.3490500000 	   -0.1283090000
C   	   -0.7592740000 	    0.3893020000 	   -0.0310740000
C   	   -0.0966320000 	    1.6648470000 	    0.0041550000
C   	    1.2537200000 	    1.6116920000 	    0.0246670000
N   	    1.8915650000 	    0.4141490000 	    0.0152180000
N   	   -0.1498920000 	   -0.7732280000 	   -0.0321430000
C   	    1.2240630000 	   -0.8334450000 	   -0.0076490000
O   	    1.8811300000 	   -1.8521780000 	    0.0010240000
H   	   -1.9341450000 	   -1.4900290000 	    0.0944090000
H   	   -2.6474900000 	    1.0601830000 	    0.3566530000
H   	   -0.6400830000 	    2.6013590000 	   -0.0065610000
H   	    1.8825520000 	    2.4962750000 	    0.0475750000
H   	    2.8995490000 	    0.3548830000 	    0.0311780000
