14
tauto -487.023650069
O   	    3.0097550000 	   -0.7026800000 	    0.0001910000
C   	    1.8623090000 	   -0.3007240000 	   -0.0001650000
C   	    1.5589950000 	    1.1569710000 	    0.0000400000
C   	    0.3009880000 	    1.6247050000 	   -0.0000010000
N   	    0.7697310000 	   -1.1833250000 	   -0.0000560000
C   	   -0.3974300000 	   -0.6394560000 	   -0.0000410000
N   	   -0.7148230000 	    0.6909930000 	   -0.0000810000
N   	   -2.0670230000 	    0.9289690000 	   -0.0001010000
C   	   -2.5821820000 	   -0.2581350000 	    0.0001530000
N   	   -1.6331310000 	   -1.2477320000 	   -0.0000240000
H   	    2.4047540000 	    1.8341770000 	    0.0001620000
H   	   -0.0084960000 	    2.6634310000 	    0.0000500000
H   	   -3.6450440000 	   -0.4523320000 	    0.0002400000
H   	   -1.7686090000 	   -2.2463370000 	   -0.0000510000
