16
tauto -542.33429279
C   	   -0.2491600000 	    2.7491360000 	    0.0000130000
C   	    0.2328940000 	    1.3282320000 	    0.0000290000
N   	   -0.7217180000 	    0.3101450000 	   -0.0000860000
N   	   -2.0800250000 	    0.4229280000 	   -0.0001720000
N   	   -2.5598730000 	   -0.7450830000 	    0.0000700000
N   	   -1.5431630000 	   -1.6327090000 	    0.0000520000
C   	   -0.3301800000 	   -1.0030880000 	    0.0000100000
N   	    0.8578650000 	   -1.4914770000 	    0.0000960000
C   	    1.5061450000 	    0.8973070000 	    0.0001210000
C   	    1.8941270000 	   -0.5405810000 	    0.0000930000
O   	    3.0624700000 	   -0.8706690000 	   -0.0001800000
H   	   -1.3394360000 	    2.7999560000 	   -0.0003910000
H   	    0.1238730000 	    3.2725970000 	   -0.8846510000
H   	    0.1231970000 	    3.2723960000 	    0.8850840000
H   	   -1.7237220000 	   -2.6245960000 	   -0.0000980000
H   	    2.3217610000 	    1.6123380000 	    0.0001710000
