13
tauto -503.028270577
O   	   -1.5587030000 	    2.0043350000 	    0.0000110000
C   	   -1.1724660000 	    0.8610680000 	   -0.0000550000
N   	    0.1899480000 	    0.4976000000 	   -0.0000200000
N   	    1.2651980000 	    1.3550220000 	   -0.0000100000
C   	    2.2844770000 	    0.5603130000 	    0.0000370000
N   	    1.9329810000 	   -0.7661300000 	    0.0000070000
C   	    0.5639510000 	   -0.8156550000 	   -0.0000090000
N   	   -0.2047230000 	   -1.8639110000 	   -0.0000170000
N   	   -1.5397980000 	   -1.5882380000 	    0.0000160000
C   	   -1.9795900000 	   -0.3670340000 	    0.0000320000
H   	    3.3108580000 	    0.8989960000 	    0.0000660000
H   	    2.5325310000 	   -1.5766880000 	   -0.0000830000
H   	   -3.0572410000 	   -0.2295440000 	    0.0000630000
