20
tauto -536.201222515
O   	   -3.3737940000 	    0.1815030000 	   -0.0003450000
C   	   -2.2257990000 	   -0.5277170000 	    0.0000130000
C   	   -1.0229650000 	    0.3282460000 	   -0.0000040000
C   	   -1.0133060000 	    1.6724400000 	    0.0000700000
C   	    0.3970000000 	    2.1933980000 	    0.0001030000
C   	    1.2199050000 	    0.9284260000 	    0.0000300000
C   	    0.3620170000 	   -0.1809560000 	   -0.0000080000
C   	    0.8676340000 	   -1.4771370000 	   -0.0000640000
C   	    2.2506860000 	   -1.6435700000 	   -0.0000950000
C   	    3.1066870000 	   -0.5416280000 	   -0.0000660000
C   	    2.5955410000 	    0.7559540000 	    0.0000020000
O   	   -2.2182160000 	   -1.7386740000 	    0.0003670000
H   	   -4.0880290000 	   -0.4763970000 	   -0.0002030000
H   	   -1.8944560000 	    2.3046010000 	    0.0000900000
H   	    0.5915640000 	    2.8207890000 	    0.8802620000
H   	    0.5915740000 	    2.8209290000 	   -0.8799520000
H   	    0.1920820000 	   -2.3265130000 	   -0.0000620000
H   	    2.6695050000 	   -2.6468050000 	   -0.0001430000
H   	    4.1827660000 	   -0.6963130000 	   -0.0000930000
H   	    3.2666720000 	    1.6123420000 	    0.0000300000
