20
tauto -511.54275883
C   	    3.2280280000 	    0.0504990000 	    0.0636350000
C   	    1.7648300000 	   -0.2739880000 	    0.0211530000
C   	    1.2641690000 	   -1.5393730000 	    0.0101920000
N   	   -0.0647590000 	   -1.8919230000 	   -0.0337610000
C   	   -0.8721300000 	   -0.8792690000 	   -0.0624970000
N   	   -2.2412400000 	   -0.9359780000 	   -0.1481080000
C   	   -2.8030650000 	    0.3606410000 	    0.2242030000
C   	   -1.6461610000 	    1.3223440000 	   -0.1055100000
N   	   -0.4970440000 	    0.4320310000 	   -0.0265730000
C   	    0.8366660000 	    0.8485820000 	   -0.0151010000
O   	    1.1133790000 	    2.0386150000 	   -0.0265220000
H   	    3.8311570000 	   -0.8623190000 	    0.0888100000
H   	    3.4695440000 	    0.6537980000 	    0.9456190000
H   	    3.5228730000 	    0.6404430000 	   -0.8110430000
H   	    1.9513780000 	   -2.3842640000 	    0.0368850000
H   	   -2.6748270000 	   -1.7913330000 	    0.1667230000
H   	   -3.0514090000 	    0.4018810000 	    1.2938090000
H   	   -3.7027330000 	    0.5839710000 	   -0.3540720000
H   	   -1.5400640000 	    2.1449190000 	    0.6035320000
H   	   -1.7256770000 	    1.7384620000 	   -1.1154450000
