34
tauto -782.788235548
C   	   -0.0822840000 	    2.2095050000 	   -0.0015520000
C   	    1.2896790000 	    1.5352690000 	   -0.0007510000
C   	   -1.0092440000 	    1.0066360000 	   -0.0010310000
N   	   -2.3453480000 	    1.2300710000 	   -0.0011640000
C   	   -3.4187370000 	    0.3116610000 	   -0.0003580000
C   	   -4.7087820000 	    0.8516750000 	    0.0004070000
C   	   -5.8180020000 	    0.0181990000 	    0.0011670000
C   	   -5.6539890000 	   -1.3642870000 	    0.0011850000
C   	   -4.3690200000 	   -1.8953660000 	    0.0004280000
C   	   -3.2448740000 	   -1.0737340000 	   -0.0003530000
N   	   -0.4437830000 	   -0.1539580000 	   -0.0005530000
C   	    0.9455810000 	    0.0426130000 	   -0.0004460000
N   	    1.7494830000 	   -0.9389310000 	   -0.0001790000
C   	    3.1324780000 	   -0.6685170000 	    0.0001620000
C   	    3.8339090000 	   -0.5654720000 	   -1.2051510000
C   	    5.2068850000 	   -0.3433110000 	   -1.2007630000
C   	    5.9000870000 	   -0.2264770000 	    0.0009640000
C   	    5.2056420000 	   -0.3397820000 	    1.2023070000
C   	    3.8326560000 	   -0.5619010000 	    1.2058970000
H   	   -0.2578520000 	    2.8317540000 	   -0.8862340000
H   	   -0.2583290000 	    2.8330110000 	    0.8821480000
H   	    1.8918640000 	    1.7837880000 	    0.8780710000
H   	    1.8927120000 	    1.7832340000 	   -0.8791480000
H   	   -2.6208700000 	    2.2010810000 	   -0.0013940000
H   	   -4.8431110000 	    1.9326940000 	    0.0004230000
H   	   -6.8137610000 	    0.4539040000 	    0.0017750000
H   	   -6.5203400000 	   -2.0199410000 	    0.0017810000
H   	   -4.2275130000 	   -2.9731620000 	    0.0004360000
H   	   -2.2443580000 	   -1.4879830000 	   -0.0008930000
H   	    3.2902520000 	   -0.6733530000 	   -2.1406390000
H   	    5.7388150000 	   -0.2641070000 	   -2.1460580000
H   	    6.9735060000 	   -0.0566010000 	    0.0012680000
H   	    5.7365760000 	   -0.2577980000 	    2.1479240000
H   	    3.2880290000 	   -0.6670600000 	    2.1411380000
