32
tauto -872.81095422
C   	    4.6793910000 	   -1.9156650000 	    1.1535440000
C   	    4.3727910000 	   -1.2545490000 	   -0.1958260000
C   	    3.0456890000 	   -0.5684340000 	   -0.2004310000
N   	    1.8840300000 	   -1.2531950000 	   -0.1726990000
N   	    0.8516830000 	   -0.3769030000 	   -0.1463680000
C   	    1.3151860000 	    0.9071680000 	   -0.1576650000
N   	    0.5009870000 	    1.9364260000 	   -0.1438520000
C   	   -0.8087100000 	    1.6045090000 	   -0.1050870000
C   	   -1.3657250000 	    0.3347210000 	   -0.0707140000
C   	   -2.8329070000 	    0.1355510000 	    0.0145380000
C   	   -3.6256810000 	    1.0251080000 	    0.7486920000
C   	   -5.0054970000 	    0.8671910000 	    0.8093330000
C   	   -5.6169720000 	   -0.1926010000 	    0.1470900000
C   	   -4.8364890000 	   -1.0926410000 	   -0.5725100000
C   	   -3.4572140000 	   -0.9335670000 	   -0.6389740000
C   	   -0.4890590000 	   -0.8068380000 	   -0.1135540000
O   	   -0.6962000000 	   -2.0151330000 	   -0.1250980000
C   	    2.7471800000 	    0.7826870000 	   -0.1920860000
C   	    3.7020710000 	    1.8356950000 	   -0.2126030000
N   	    4.5138630000 	    2.6621680000 	   -0.2300340000
H   	    5.6626720000 	   -2.3928250000 	    1.1223470000
H   	    3.9396840000 	   -2.6831820000 	    1.4042200000
H   	    4.6845540000 	   -1.1731730000 	    1.9568690000
H   	    4.3934200000 	   -2.0001160000 	   -0.9994150000
H   	    5.1347490000 	   -0.5058630000 	   -0.4323770000
H   	    1.6538630000 	   -2.2386660000 	   -0.1758210000
H   	   -1.4867250000 	    2.4561570000 	   -0.1138420000
H   	   -3.1559190000 	    1.8386770000 	    1.2969400000
H   	   -5.6023730000 	    1.5676940000 	    1.3879400000
H   	   -6.6949390000 	   -0.3220270000 	    0.1996870000
H   	   -5.3041360000 	   -1.9283170000 	   -1.0871370000
H   	   -2.8535180000 	   -1.6467750000 	   -1.1904410000
