15
tauto -396.038918221
N   	    2.3275010000 	   -0.9183010000 	    0.0412920000
C   	    1.1002120000 	   -0.3511410000 	   -0.0217150000
C   	    1.0595380000 	    1.1329490000 	   -0.3065550000
C   	   -0.2137870000 	    1.6986140000 	    0.3049910000
N   	   -1.3052510000 	    0.8478300000 	   -0.1145360000
N   	    0.0610040000 	   -1.0988740000 	    0.1274840000
C   	   -1.2179850000 	   -0.5339550000 	   -0.0139610000
O   	   -2.2171090000 	   -1.2216680000 	   -0.0664760000
H   	    3.1680070000 	   -0.3676960000 	    0.0770430000
H   	    2.3775710000 	   -1.9038760000 	    0.2516620000
H   	    1.0475550000 	    1.2760550000 	   -1.3939920000
H   	    1.9480500000 	    1.6342550000 	    0.0918720000
H   	   -0.3921170000 	    2.7177830000 	   -0.0502360000
H   	   -0.1125840000 	    1.7383900000 	    1.4017390000
H   	   -2.2502550000 	    1.1850420000 	   -0.0025100000
