14
tauto -487.038390816
O   	    1.4459750000 	    2.0751160000 	    0.0000750000
C   	    1.1835650000 	    0.8892770000 	    0.0000210000
N   	   -0.1887410000 	    0.4750800000 	    0.0000300000
C   	   -1.3353360000 	    1.2409970000 	   -0.0000600000
N   	   -2.3957750000 	    0.5004190000 	   -0.0002260000
N   	   -1.9262590000 	   -0.7801950000 	   -0.0000480000
C   	   -0.5736160000 	   -0.8397800000 	   -0.0000110000
N   	    0.2121700000 	   -1.8831230000 	    0.0000350000
C   	    1.5294730000 	   -1.5370750000 	    0.0000770000
C   	    2.0416190000 	   -0.2654970000 	    0.0001040000
H   	   -1.3163290000 	    2.3203190000 	   -0.0000590000
H   	   -2.5618050000 	   -1.5618060000 	   -0.0001810000
H   	    2.2158290000 	   -2.3814330000 	    0.0001410000
H   	    3.1105090000 	   -0.0908090000 	    0.0001710000
