14
tauto -374.968828875
N   	   -2.3110080000 	   -0.9949960000 	   -0.0595950000
C   	   -1.1475940000 	   -0.2765650000 	   -0.0086330000
C   	   -1.1485070000 	    1.1307980000 	   -0.0035170000
C   	    0.0942560000 	    1.7296790000 	   -0.0002870000
N   	    1.2493510000 	    1.0594190000 	    0.0039700000
C   	    1.1215720000 	   -0.2740290000 	    0.0086420000
N   	    2.2797400000 	   -0.9957250000 	    0.0575520000
N   	   -0.0164240000 	   -0.9818070000 	    0.0001610000
H   	   -3.1624030000 	   -0.5468740000 	    0.2392990000
H   	   -2.2227580000 	   -1.9756780000 	    0.1609930000
H   	   -2.0679810000 	    1.7059670000 	   -0.0181050000
H   	    0.1789980000 	    2.8161910000 	   -0.0032050000
H   	    3.1245820000 	   -0.4985910000 	   -0.1746300000
H   	    2.2195860000 	   -1.9685520000 	   -0.1962000000
