15
tauto -450.141521393
C   	    2.6046390000 	   -0.7617370000 	    0.0013490000
C   	    1.1301380000 	   -0.5093940000 	    0.0077820000
N   	    0.3065840000 	   -1.5059900000 	   -0.0050350000
N   	   -1.0507870000 	   -1.3153150000 	    0.0160480000
C   	   -1.5027550000 	   -0.0983780000 	   -0.0042140000
N   	   -2.8581430000 	    0.1252960000 	   -0.0738090000
N   	   -0.6952440000 	    1.0063530000 	   -0.0109000000
C   	    0.6898100000 	    0.8986980000 	    0.0070580000
O   	    1.4118040000 	    1.8761500000 	    0.0030220000
H   	    2.7883710000 	   -1.8375360000 	   -0.0036530000
H   	    3.0756370000 	   -0.3099600000 	    0.8807470000
H   	    3.0692450000 	   -0.3034170000 	   -0.8780070000
H   	   -3.3802670000 	   -0.7336360000 	    0.0433380000
H   	   -3.2176920000 	    0.8882790000 	    0.4836550000
H   	   -1.0775890000 	    1.9395240000 	   -0.1062280000
