15
tauto -471.006191186
C   	    3.2230520000 	   -0.0887310000 	   -0.0000150000
C   	    1.7308740000 	   -0.2199810000 	   -0.0000230000
N   	    1.0112700000 	    0.9327360000 	   -0.0000060000
C   	   -0.3940230000 	    1.0132000000 	    0.0000060000
O   	   -0.9559300000 	    2.0864740000 	    0.0000240000
N   	    1.1728780000 	   -1.3969530000 	    0.0000150000
C   	   -0.1915930000 	   -1.4223670000 	    0.0000240000
C   	   -0.9932900000 	   -0.3169850000 	   -0.0000020000
C   	   -2.4207000000 	   -0.4317690000 	   -0.0000060000
N   	   -3.5718730000 	   -0.5553460000 	   -0.0000340000
H   	    3.5635450000 	    0.4569920000 	   -0.8865980000
H   	    3.6647330000 	   -1.0850280000 	   -0.0003100000
H   	    3.5635700000 	    0.4565160000 	    0.8868430000
H   	    1.4835430000 	    1.8298520000 	    0.0000220000
H   	   -0.6397900000 	   -2.4133790000 	    0.0001230000
