12
tauto -306.397965494
C   	    1.8919130000 	   -0.5534900000 	    0.0005780000
C   	    0.6889750000 	    0.3486870000 	   -0.0002840000
C   	   -0.6889750000 	   -0.3486870000 	   -0.0002260000
C   	   -1.8919140000 	    0.5534890000 	    0.0005720000
O   	   -0.7396510000 	   -1.5585830000 	   -0.0006490000
O   	    0.7396520000 	    1.5585830000 	   -0.0006360000
H   	    1.8681170000 	   -1.2119870000 	   -0.8736250000
H   	    1.8706280000 	   -1.2061050000 	    0.8793190000
H   	    2.8008700000 	    0.0497510000 	   -0.0024380000
H   	   -1.8681060000 	    1.2119460000 	   -0.8736610000
H   	   -1.8706430000 	    1.2061460000 	    0.8792830000
H   	   -2.8008700000 	   -0.0497530000 	   -0.0024320000
