15
tauto -450.112107031
C   	    0.3051310000 	    2.0814790000 	   -0.0355750000
N   	    0.0787510000 	    0.6436820000 	   -0.0001910000
C   	    1.1058040000 	   -0.2339050000 	    0.0034850000
N   	    2.3815630000 	    0.2415410000 	   -0.0359430000
C   	    0.7963010000 	   -1.5840310000 	   -0.0006500000
N   	   -0.4773570000 	   -2.0079810000 	   -0.0128610000
N   	   -1.4801550000 	   -1.1994200000 	   -0.0059290000
C   	   -1.2727650000 	    0.1782760000 	    0.0106060000
O   	   -2.1775110000 	    0.9863820000 	    0.0279300000
H   	    0.9572640000 	    2.3392820000 	   -0.8756330000
H   	    0.7468340000 	    2.4312330000 	    0.9047080000
H   	   -0.6710210000 	    2.5475260000 	   -0.1611560000
H   	    2.5747840000 	    1.1709150000 	    0.3036180000
H   	    3.1158230000 	   -0.4318500000 	    0.1217570000
H   	    1.5699660000 	   -2.3438340000 	    0.0005300000
