15
tauto -450.14152142
C   	    2.6045800000 	   -0.7616830000 	    0.0011420000
C   	    1.1301220000 	   -0.5093380000 	    0.0083370000
N   	    0.3066390000 	   -1.5060220000 	   -0.0045170000
N   	   -1.0507340000 	   -1.3153950000 	    0.0161020000
C   	   -1.5026210000 	   -0.0984670000 	   -0.0041260000
N   	   -2.8580770000 	    0.1253170000 	   -0.0743740000
N   	   -0.6952660000 	    1.0063000000 	   -0.0107040000
C   	    0.6897680000 	    0.8987130000 	    0.0077190000
O   	    1.4117040000 	    1.8761980000 	    0.0023490000
H   	    2.7883000000 	   -1.8374790000 	   -0.0040110000
H   	    3.0759450000 	   -0.3099250000 	    0.8803480000
H   	    3.0688270000 	   -0.3032700000 	   -0.8783650000
H   	   -3.3802510000 	   -0.7335870000 	    0.0426710000
H   	   -3.2177240000 	    0.8885300000 	    0.4827430000
H   	   -1.0777530000 	    1.9394070000 	   -0.1061600000
