13
tauto -394.819597726
N   	   -2.3553950000 	   -0.8447150000 	   -0.0615160000
C   	   -1.1642950000 	   -0.1741030000 	   -0.0063920000
N   	   -0.0291500000 	   -0.9136960000 	    0.0001230000
C   	   -1.0312010000 	    1.1962040000 	   -0.0014590000
C   	    0.2885040000 	    1.6950090000 	    0.0026870000
N   	    1.3937340000 	    0.9943530000 	    0.0098280000
C   	    1.2911510000 	   -0.3787470000 	    0.0028730000
O   	    2.2163330000 	   -1.1632550000 	   -0.0022120000
H   	   -2.3874370000 	   -1.7837860000 	    0.3074530000
H   	   -3.1807300000 	   -0.2985330000 	    0.1335030000
H   	   -0.0613700000 	   -1.9235290000 	   -0.0539350000
H   	   -1.8932090000 	    1.8517310000 	   -0.0006850000
H   	    0.4228040000 	    2.7783810000 	    0.0060630000
