19
tauto -552.22129744
N   	    2.1039580000 	    2.4537120000 	   -0.6775490000
C   	    1.6498720000 	    1.3913530000 	   -0.6602670000
C   	    1.0440770000 	    0.0546450000 	   -0.6622780000
C   	    1.7581800000 	   -0.8474370000 	    0.3441830000
O   	    1.5809320000 	   -2.1374940000 	    0.0139230000
O   	    2.3597630000 	   -0.4761690000 	    1.3156140000
C   	   -0.4459650000 	    0.0899450000 	   -0.3254120000
C   	   -0.9412650000 	    0.9960090000 	    0.6104150000
C   	   -2.2931030000 	    0.9854910000 	    0.9381850000
C   	   -3.1516020000 	    0.0688660000 	    0.3386510000
C   	   -2.6553240000 	   -0.8405170000 	   -0.5909240000
C   	   -1.3045220000 	   -0.8316010000 	   -0.9217210000
H   	    1.1761930000 	   -0.3804280000 	   -1.6586790000
H   	    1.9991210000 	   -2.6627030000 	    0.7166140000
H   	   -0.2710810000 	    1.7165220000 	    1.0738010000
H   	   -2.6751370000 	    1.6984180000 	    1.6637540000
H   	   -4.2081370000 	    0.0645540000 	    0.5931900000
H   	   -3.3213550000 	   -1.5573890000 	   -1.0636310000
H   	   -0.9149650000 	   -1.5461750000 	   -1.6434880000
