27
tauto -810.712587424
N   	    2.2184970000 	    2.9562280000 	   -0.4392300000
C   	    2.0213020000 	    1.6154470000 	   -0.2814450000
N   	    3.0489330000 	    0.9363830000 	    0.2798920000
C   	    2.8998970000 	   -0.3601980000 	    0.4986450000
O   	    3.9144040000 	   -1.0268980000 	    1.0487360000
C   	    1.7075070000 	   -1.0121330000 	    0.1581080000
N   	    1.2499980000 	   -2.3190430000 	    0.2526510000
C   	    0.0573410000 	   -2.2661960000 	   -0.2526390000
N   	   -0.3139460000 	   -1.0068720000 	   -0.6976710000
C   	   -1.5918400000 	   -0.5997900000 	   -1.1948180000
O   	   -2.4715120000 	   -0.4364570000 	   -0.1138350000
C   	   -3.7539410000 	    0.0160900000 	   -0.5131850000
C   	   -4.5018260000 	    0.3492780000 	    0.7629280000
O   	   -3.8413120000 	    1.3629340000 	    1.4816460000
C   	    0.7483340000 	   -0.1824620000 	   -0.4181320000
N   	    0.8422510000 	    1.1237430000 	   -0.6669900000
H   	    3.1681530000 	    3.2870540000 	   -0.3885200000
H   	    1.5826170000 	    3.4393440000 	   -1.0530630000
H   	    4.6154440000 	   -0.3721560000 	    1.1989510000
H   	   -0.6240190000 	   -3.1044000000 	   -0.3434320000
H   	   -1.9703460000 	   -1.3667040000 	   -1.8872000000
H   	   -1.4507880000 	    0.3441570000 	   -1.7376360000
H   	   -4.2777390000 	   -0.7601590000 	   -1.0941680000
H   	   -3.6594150000 	    0.9190730000 	   -1.1356930000
H   	   -4.6122020000 	   -0.5682120000 	    1.3618370000
H   	   -5.5027480000 	    0.7203820000 	    0.5215970000
H   	   -2.9223820000 	    1.0717030000 	    1.5676130000
