19
tauto -527.542122425
C   	    3.1975190000 	   -0.0139880000 	    0.0676180000
C   	    1.7299520000 	   -0.3059090000 	    0.0203080000
N   	    1.3247330000 	   -1.5355860000 	    0.0140060000
N   	   -0.0112040000 	   -1.8607920000 	   -0.0329680000
C   	   -0.8398640000 	   -0.8675630000 	   -0.0657270000
N   	   -2.2062530000 	   -0.9581330000 	   -0.1536740000
C   	   -2.7996960000 	    0.3223370000 	    0.2291270000
C   	   -1.6723350000 	    1.3182800000 	   -0.1024140000
N   	   -0.4995870000 	    0.4569700000 	   -0.0303330000
C   	    0.8194480000 	    0.8606300000 	   -0.0179180000
O   	    1.1448520000 	    2.0341010000 	   -0.0265910000
H   	    3.7523810000 	   -0.9531470000 	    0.1036080000
H   	    3.4418480000 	    0.5937960000 	    0.9453260000
H   	    3.5039920000 	    0.5617960000 	   -0.8121680000
H   	   -2.6194340000 	   -1.8256350000 	    0.1559720000
H   	   -3.0431440000 	    0.3532590000 	    1.2999910000
H   	   -3.7073920000 	    0.5238690000 	   -0.3441640000
H   	   -1.5858340000 	    2.1400790000 	    0.6103590000
H   	   -1.7651940000 	    1.7332270000 	   -1.1113720000
