21
tauto -549.604362795
C   	   -3.7711870000 	   -0.4907170000 	    0.0004680000
C   	   -2.2766460000 	   -0.4302740000 	    0.0000330000
N   	   -1.6620140000 	    0.7572950000 	   -0.0005350000
N   	   -0.3522330000 	    0.4354210000 	   -0.0001670000
C   	    0.6414030000 	    1.3599590000 	    0.0000030000
O   	    0.2651270000 	    2.6319650000 	   -0.0000930000
C   	    1.9279140000 	    0.8934710000 	    0.0001930000
C   	    2.1302820000 	   -0.5157250000 	    0.0002210000
C   	    3.5337000000 	   -1.0618630000 	    0.0004110000
N   	    1.1567710000 	   -1.4044100000 	   -0.0000040000
C   	   -0.1074300000 	   -0.9262940000 	   -0.0001700000
C   	   -1.3702790000 	   -1.5060290000 	   -0.0006050000
H   	   -4.1875990000 	    0.5194440000 	   -0.0004420000
H   	   -4.1403740000 	   -1.0198980000 	    0.8848980000
H   	   -4.1407560000 	   -1.0216750000 	   -0.8827250000
H   	   -0.7138510000 	    2.6346860000 	   -0.0002780000
H   	    2.7550480000 	    1.5920540000 	    0.0002850000
H   	    4.2831520000 	   -0.2662050000 	   -0.0001730000
H   	    3.6854800000 	   -1.6927780000 	   -0.8804930000
H   	    3.6856760000 	   -1.6916000000 	    0.8821310000
H   	   -1.5920050000 	   -2.5630650000 	   -0.0008450000
