22
tauto -699.868674556
O   	    4.4165310000 	   -0.3742680000 	   -0.0003540000
C   	    3.2174270000 	   -0.2644930000 	   -0.0001490000
C   	    2.3969520000 	    1.0246240000 	    0.0004660000
N   	    1.0350270000 	    0.5273990000 	    0.0004050000
N   	    2.2938970000 	   -1.2964060000 	   -0.0002440000
C   	    0.9846850000 	   -0.8484440000 	    0.0000040000
N   	   -0.0588240000 	   -1.5863590000 	   -0.0002080000
C   	   -1.2676690000 	   -0.8867970000 	   -0.0001640000
C   	   -2.4629350000 	   -1.6212920000 	   -0.0001360000
C   	   -3.6813010000 	   -0.9688590000 	   -0.0000580000
C   	   -3.7476680000 	    0.4320720000 	    0.0000020000
C   	   -2.5802480000 	    1.1699290000 	    0.0000170000
C   	   -1.3401000000 	    0.5202480000 	   -0.0000060000
C   	   -0.1065640000 	    1.3230040000 	    0.0002110000
O   	   -0.0196250000 	    2.5363520000 	    0.0001000000
H   	    2.6095400000 	    1.6276340000 	   -0.8870510000
H   	    2.6098050000 	    1.6264760000 	    0.8887390000
H   	    2.5366790000 	   -2.2760620000 	   -0.0003830000
H   	   -2.3966730000 	   -2.7051350000 	   -0.0002030000
H   	   -4.5999060000 	   -1.5503310000 	   -0.0000550000
H   	   -4.7119520000 	    0.9319800000 	    0.0000770000
H   	   -2.5889190000 	    2.2563720000 	    0.0001150000
