20
tauto -511.52747351
C   	    2.8921970000 	    1.3224910000 	   -0.0002870000
C   	    1.5468490000 	    0.6485630000 	   -0.0000370000
C   	    1.5134260000 	   -0.8255580000 	   -0.0000700000
N   	    0.2359690000 	   -1.3929390000 	   -0.0001360000
O   	    2.4953790000 	   -1.5450480000 	   -0.0008440000
C   	    0.3750660000 	    1.3176760000 	    0.0002890000
N   	   -0.8351460000 	    0.6806370000 	    0.0005730000
C   	   -0.9501720000 	   -0.7010360000 	    0.0001060000
N   	   -2.1254740000 	   -1.1952190000 	   -0.0000640000
C   	   -3.0444240000 	   -0.0535130000 	    0.0007800000
C   	   -2.1793340000 	    1.2451500000 	   -0.0001470000
H   	    3.6698310000 	    0.5555540000 	   -0.0005510000
H   	    3.0341110000 	    1.9505290000 	    0.8858920000
H   	    3.0336880000 	    1.9507320000 	   -0.8863910000
H   	    0.1879100000 	   -2.4028690000 	   -0.0004440000
H   	    0.3282490000 	    2.4043150000 	    0.0003840000
H   	   -3.6920720000 	   -0.0972440000 	    0.8831840000
H   	   -3.6939560000 	   -0.0972980000 	   -0.8802100000
H   	   -2.3401230000 	    1.8641590000 	    0.8892140000
H   	   -2.3397600000 	    1.8625150000 	   -0.8907390000
