33
tauto -1038.52091545
N   	    3.2761810000 	    2.9795830000 	   -0.1816210000
C   	    2.9826650000 	    1.6447200000 	   -0.1761350000
N   	    4.0500810000 	    0.8135350000 	   -0.2136190000
C   	    3.8297610000 	   -0.4907630000 	   -0.1719010000
O   	    4.8830810000 	   -1.3079680000 	   -0.2114230000
C   	    2.5262590000 	   -0.9959260000 	   -0.0924980000
N   	    1.9775330000 	   -2.2688340000 	   -0.0481600000
C   	    0.6996520000 	   -2.0524960000 	    0.0103020000
N   	    0.3519860000 	   -0.7113030000 	    0.0098030000
C   	   -0.9648960000 	   -0.1454560000 	    0.0550630000
C   	   -1.7808910000 	   -0.4998870000 	    1.3099410000
O   	   -1.4321670000 	    0.2194370000 	    2.4498290000
O   	   -1.7262040000 	   -0.6691680000 	   -1.0215710000
C   	   -3.1114720000 	   -0.6408630000 	   -0.6746210000
C   	   -3.8342190000 	    0.3465210000 	   -1.5886760000
O   	   -5.1479120000 	    0.6248440000 	   -1.1153040000
C   	   -3.2052970000 	   -0.2443360000 	    0.8126610000
O   	   -3.4324430000 	    1.1385150000 	    1.0028980000
C   	    1.5334090000 	   -0.0176560000 	   -0.0653300000
N   	    1.6952770000 	    1.3056880000 	   -0.1082280000
H   	    4.1973980000 	    3.2364430000 	   -0.4974280000
H   	    2.5167170000 	    3.6029920000 	   -0.4041960000
H   	    5.6641120000 	   -0.7332570000 	   -0.2585690000
H   	   -0.0615030000 	   -2.8226150000 	    0.0361100000
H   	   -0.8365270000 	    0.9420320000 	   -0.0200220000
H   	   -1.6432060000 	   -1.5657020000 	    1.5284120000
H   	   -1.8865880000 	    1.0735990000 	    2.3760350000
H   	   -3.5113330000 	   -1.6549920000 	   -0.8185000000
H   	   -3.8459630000 	   -0.0214640000 	   -2.6217900000
H   	   -3.2956170000 	    1.2964530000 	   -1.5742060000
H   	   -5.7030360000 	   -0.1493180000 	   -1.2707280000
H   	   -3.9545560000 	   -0.8382040000 	    1.3510680000
H   	   -4.3019680000 	    1.3349300000 	    0.6183170000
