18
tauto -547.451534769
C   	    2.2937590000 	    1.5102110000 	    0.0002210000
C   	    2.4878070000 	    0.0210710000 	    0.0000150000
N   	    1.3659200000 	   -0.8259810000 	   -0.0000690000
C   	    0.0102280000 	   -0.5748720000 	   -0.0000530000
C   	   -0.8446310000 	   -1.7350510000 	    0.0000370000
C   	   -2.1747110000 	   -1.4917240000 	    0.0000960000
N   	   -2.6278520000 	   -0.2160950000 	    0.0000720000
N   	   -0.4228670000 	    0.6550870000 	   -0.0000980000
C   	   -1.7773210000 	    0.9130800000 	   -0.0000560000
O   	   -2.2720020000 	    2.0199980000 	   -0.0001120000
O   	    3.5767720000 	   -0.5136900000 	   -0.0001150000
H   	    1.7189720000 	    1.8297120000 	    0.8723970000
H   	    1.7194500000 	    1.8299490000 	   -0.8721920000
H   	    3.2852450000 	    1.9649650000 	    0.0005240000
H   	    1.6509210000 	   -1.7968270000 	   -0.0001440000
H   	   -0.4495880000 	   -2.7434970000 	    0.0000710000
H   	   -2.9244980000 	   -2.2765900000 	    0.0001740000
H   	   -3.6158630000 	   -0.0055380000 	    0.0000960000
