17
tauto -414.266981787
C   	   -2.8022980000 	   -0.9231840000 	    0.0480160000
N   	   -2.1056620000 	    0.3387980000 	   -0.0765740000
C   	   -0.7486730000 	    0.4256130000 	   -0.0263200000
C   	   -0.0988800000 	    1.6798220000 	   -0.0007180000
C   	    1.2767090000 	    1.6417940000 	    0.0176300000
N   	    1.9978830000 	    0.5141560000 	    0.0185830000
C   	    1.2730300000 	   -0.6092040000 	    0.0048190000
N   	    1.9683360000 	   -1.7846670000 	    0.0512860000
N   	   -0.0643340000 	   -0.7189780000 	   -0.0205170000
H   	   -3.8704150000 	   -0.7460390000 	   -0.0988880000
H   	   -2.6454050000 	   -1.3890160000 	    1.0290420000
H   	   -2.4508760000 	   -1.6222400000 	   -0.7147240000
H   	   -2.6229870000 	    1.1868720000 	    0.0860730000
H   	   -0.6506430000 	    2.6140580000 	   -0.0084450000
H   	    1.8500970000 	    2.5684960000 	    0.0302990000
H   	    2.9486970000 	   -1.7300780000 	   -0.1742450000
H   	    1.4686370000 	   -2.6162670000 	   -0.2191230000
