11
tauto -339.470126147
O   	   -2.2032770000 	   -0.1116790000 	    0.0000260000
C   	   -0.8670440000 	   -0.0513140000 	   -0.0000260000
N   	   -0.3219750000 	    1.1665690000 	   -0.0000080000
C   	    1.0098530000 	    1.2017150000 	   -0.0000080000
C   	    1.7869310000 	    0.0521930000 	    0.0000140000
C   	    1.0895450000 	   -1.1512570000 	   -0.0000010000
N   	   -0.2386990000 	   -1.2235000000 	   -0.0000160000
H   	   -2.5139850000 	    0.8065440000 	   -0.0000010000
H   	    1.4626310000 	    2.1919500000 	    0.0000150000
H   	    2.8701110000 	    0.0899350000 	    0.0000450000
H   	    1.6164680000 	   -2.1045030000 	    0.0000220000
