13
tauto -394.830626622
N   	   -2.3508860000 	   -0.8398480000 	   -0.0411310000
C   	   -1.1248920000 	   -0.2555110000 	   -0.0043650000
C   	   -1.0476190000 	    1.1845400000 	   -0.0014400000
C   	    0.1983260000 	    1.7089450000 	    0.0017740000
N   	    1.2764560000 	    0.8900740000 	    0.0019620000
N   	   -0.0830310000 	   -1.0523010000 	    0.0007990000
C   	    1.1840140000 	   -0.5253680000 	   -0.0001070000
O   	    2.2142780000 	   -1.1689090000 	    0.0023310000
H   	   -3.1764510000 	   -0.3108180000 	    0.1852290000
H   	   -2.3762000000 	   -1.8392320000 	    0.0946570000
H   	   -1.9321660000 	    1.8096460000 	   -0.0131030000
H   	    0.3955170000 	    2.7767100000 	    0.0026500000
H   	    2.2183320000 	    1.2538560000 	    0.0053350000
