10
tauto -297.537617923
N   	   -2.0161030000 	    0.0032300000 	   -0.0817460000
C   	   -0.6368870000 	   -0.0070640000 	   -0.0139310000
N   	    0.0723840000 	   -1.1222460000 	   -0.0013860000
N   	    1.3406590000 	   -0.6339190000 	    0.0079710000
H   	    2.1222000000 	   -1.2689160000 	    0.0125510000
C   	    1.3259300000 	    0.7041730000 	    0.0070620000
N   	    0.0868160000 	    1.1492110000 	   -0.0050610000
H   	   -2.4441840000 	   -0.8417950000 	    0.2686440000
H   	   -2.4208780000 	    0.8433710000 	    0.3055540000
H   	    2.2223100000 	    1.3107550000 	    0.0160150000
