47
tauto -1053.09343539
C   	   -2.4629910000 	    0.4416380000 	    2.6920220000
C   	   -1.3815190000 	   -0.4750710000 	    2.1296370000
C   	   -1.2171570000 	   -0.3721180000 	    0.5963560000
C   	   -2.4941060000 	   -0.8024800000 	   -0.1284620000
C   	   -3.0070210000 	   -2.0884200000 	    0.0670640000
C   	   -4.1532750000 	   -2.5062140000 	   -0.6010420000
C   	   -4.8075910000 	   -1.6382540000 	   -1.4704130000
C   	   -4.3054500000 	   -0.3558960000 	   -1.6655880000
C   	   -3.1548870000 	    0.0592510000 	   -1.0006670000
N   	   -0.8652180000 	    0.9905030000 	    0.2582940000
C   	    0.3836410000 	    1.2875350000 	    0.2214300000
C   	    0.7687140000 	    2.7121970000 	   -0.0137120000
C   	   -0.2210950000 	    3.6903280000 	   -0.1450560000
C   	    0.1262370000 	    5.0156440000 	   -0.3692860000
C   	    1.4683600000 	    5.3804490000 	   -0.4612620000
C   	    2.4579790000 	    4.4125730000 	   -0.3251670000
C   	    2.1110360000 	    3.0834580000 	   -0.1020670000
N   	    1.4566510000 	    0.4011450000 	    0.3328510000
C   	    1.1405840000 	   -0.8517660000 	    0.1803860000
C   	    2.2089570000 	   -1.8663410000 	   -0.0198430000
C   	    3.4337580000 	   -1.4667410000 	   -0.5583020000
C   	    4.4408060000 	   -2.3999950000 	   -0.7659990000
C   	    4.2345350000 	   -3.7374370000 	   -0.4337960000
C   	    3.0203050000 	   -4.1389960000 	    0.1143570000
C   	    2.0103200000 	   -3.2056480000 	    0.3221680000
N   	   -0.1374450000 	   -1.2833320000 	    0.1748500000
H   	   -2.5194550000 	    0.3453960000 	    3.7811040000
H   	   -3.4464020000 	    0.1925250000 	    2.2785770000
H   	   -2.2495210000 	    1.4864080000 	    2.4489540000
H   	   -1.5936520000 	   -1.5212230000 	    2.3855680000
H   	   -0.4080860000 	   -0.2316310000 	    2.5743770000
H   	   -2.5156650000 	   -2.7752160000 	    0.7554790000
H   	   -4.5390380000 	   -3.5093440000 	   -0.4370880000
H   	   -5.7056230000 	   -1.9608650000 	   -1.9910250000
H   	   -4.8109070000 	    0.3285030000 	   -2.3424380000
H   	   -2.7530880000 	    1.0564320000 	   -1.1480000000
H   	   -1.2617190000 	    3.3904430000 	   -0.0643380000
H   	   -0.6511060000 	    5.7690750000 	   -0.4701220000
H   	    1.7398180000 	    6.4188010000 	   -0.6360040000
H   	    3.5065480000 	    4.6918530000 	   -0.3932210000
H   	    2.8738700000 	    2.3201010000 	    0.0102050000
H   	    3.5734210000 	   -0.4193820000 	   -0.8079320000
H   	    5.3900140000 	   -2.0849280000 	   -1.1911740000
H   	    5.0239670000 	   -4.4666790000 	   -0.5969810000
H   	    2.8616560000 	   -5.1783440000 	    0.3891410000
H   	    1.0759550000 	   -3.5160780000 	    0.7843000000
H   	   -0.3697640000 	   -2.1602440000 	   -0.2678800000
