25
tauto -627.052934983
C   	    4.8131630000 	   -0.6023320000 	   -0.1044770000
C   	    3.3340480000 	   -0.8772540000 	    0.1174110000
N   	    2.5707130000 	    0.3540380000 	   -0.0353260000
C   	    1.2036610000 	    0.3116640000 	    0.0068030000
N   	    0.5766560000 	    1.5426310000 	    0.0062340000
N   	    0.5734390000 	   -0.8166970000 	    0.0135980000
C   	   -0.8136190000 	   -0.7632290000 	   -0.0009360000
C   	   -1.5330150000 	   -1.9709550000 	   -0.0112390000
C   	   -2.9143800000 	   -1.9605210000 	   -0.0151330000
C   	   -3.6283310000 	   -0.7520580000 	   -0.0091310000
C   	   -2.9378810000 	    0.4431960000 	    0.0002600000
C   	   -1.5376360000 	    0.4421860000 	    0.0054220000
C   	   -0.8078590000 	    1.7134370000 	    0.0027600000
O   	   -1.2916980000 	    2.8303190000 	   -0.0111860000
H   	    5.3879870000 	   -1.5279380000 	   -0.0081630000
H   	    5.2045140000 	    0.1070960000 	    0.6352650000
H   	    4.9881160000 	   -0.1892330000 	   -1.1029210000
H   	    3.1610480000 	   -1.3237260000 	    1.1066560000
H   	    2.9540780000 	   -1.5907760000 	   -0.6178140000
H   	    3.0012810000 	    1.1818120000 	    0.3531300000
H   	    1.1122930000 	    2.3974860000 	   -0.0711240000
H   	   -0.9708370000 	   -2.9001090000 	   -0.0152470000
H   	   -3.4556380000 	   -2.9037080000 	   -0.0231690000
H   	   -4.7146470000 	   -0.7599740000 	   -0.0122210000
H   	   -3.4491780000 	    1.4019080000 	    0.0031200000
