23
tauto -492.863123659
C   	   -3.7871100000 	   -0.6464980000 	    0.0828660000
N   	   -2.4029240000 	   -1.0216660000 	   -0.0637470000
C   	   -1.3689980000 	   -0.1389380000 	   -0.0377050000
C   	   -1.5678220000 	    1.2541470000 	   -0.0135540000
C   	   -0.4130970000 	    2.0122780000 	   -0.0010970000
N   	    0.8202780000 	    1.5120820000 	   -0.0116230000
C   	    0.8942730000 	    0.1672620000 	   -0.0380090000
N   	    2.1449730000 	   -0.3859950000 	   -0.0789550000
C   	    2.3425850000 	   -1.8143170000 	    0.0196840000
C   	    3.3340020000 	    0.4233830000 	    0.0735920000
N   	   -0.1461520000 	   -0.6786870000 	   -0.0405940000
H   	   -4.4007410000 	   -1.5489220000 	    0.0441760000
H   	   -4.1071830000 	    0.0131000000 	   -0.7328560000
H   	   -3.9820410000 	   -0.1362000000 	    1.0363460000
H   	   -2.1341570000 	   -1.9893390000 	    0.0195860000
H   	   -2.5510850000 	    1.7080940000 	   -0.0004750000
H   	   -0.4785650000 	    3.1004530000 	    0.0217510000
H   	    1.4275970000 	   -2.3319380000 	   -0.2622340000
H   	    2.6173470000 	   -2.1117280000 	    1.0430680000
H   	    3.1546660000 	   -2.1153220000 	   -0.6528430000
H   	    3.0858650000 	    1.4696580000 	   -0.0936170000
H   	    4.0899290000 	    0.1043620000 	   -0.6543650000
H   	    3.7621300000 	    0.3137520000 	    1.0812430000
