13
tauto -503.029650963
O   	    1.5474510000 	    2.0045950000 	   -0.0001810000
C   	    1.1889120000 	    0.8480160000 	    0.0003790000
N   	   -0.1795150000 	    0.4970390000 	    0.0001210000
C   	   -1.3248070000 	    1.2739320000 	    0.0002000000
N   	   -2.3839860000 	    0.5350450000 	   -0.0007050000
N   	   -1.9264370000 	   -0.7488790000 	   -0.0002410000
C   	   -0.5726170000 	   -0.8159460000 	    0.0000020000
N   	    0.2040220000 	   -1.8665900000 	    0.0002100000
N   	    1.5323040000 	   -1.5906360000 	    0.0001460000
C   	    1.9913050000 	   -0.3720410000 	    0.0000610000
H   	   -1.3029720000 	    2.3531490000 	    0.0003440000
H   	   -2.5682960000 	   -1.5255390000 	    0.0006920000
H   	    3.0701820000 	   -0.2499840000 	   -0.0001630000
