10
tauto -297.524097294
N   	    2.0129830000 	    0.0726670000 	   -0.0839070000
C   	    0.6283850000 	   -0.0387950000 	   -0.0033850000
N   	   -0.0676850000 	   -1.1423550000 	    0.0176230000
N   	   -1.4003240000 	   -0.7857340000 	    0.0109600000
C   	   -1.4586260000 	    0.5117970000 	    0.0012790000
N   	   -0.1966110000 	    1.0477050000 	   -0.0058440000
H   	    0.0715010000 	    2.0112680000 	   -0.1273100000
H   	    2.4142790000 	   -0.8556050000 	   -0.1548250000
H   	    2.4180380000 	    0.5528320000 	    0.7122300000
H   	   -2.3609110000 	    1.1075170000 	    0.0107140000
