13
tauto -398.642395044
O   	   -2.4062420000 	   -0.9236160000 	   -0.0143420000
C   	   -1.3378800000 	   -0.3436090000 	   -0.0008120000
C   	   -0.0364970000 	   -1.1423500000 	    0.0203110000
C   	   -1.2154660000 	    1.1159730000 	    0.0014800000
C   	   -0.0043320000 	    1.6960150000 	    0.0019280000
N   	    1.1848320000 	    0.9921960000 	    0.0019690000
C   	    1.2786370000 	   -0.3905140000 	   -0.0006320000
O   	    2.3582520000 	   -0.9403570000 	   -0.0139000000
H   	   -0.0390730000 	   -1.8371130000 	   -0.8265710000
H   	   -0.0388500000 	   -1.7777980000 	    0.9135820000
H   	   -2.1219090000 	    1.7092750000 	   -0.0013340000
H   	    0.1157050000 	    2.7753440000 	    0.0007000000
H   	    2.0674530000 	    1.4836080000 	   -0.0078740000
