36
tauto -895.330107569
C   	    1.6973380000 	    3.9123070000 	    0.0485820000
C   	    2.2278990000 	    2.5275880000 	   -0.3048530000
C   	    1.1846980000 	    1.4591970000 	   -0.2909970000
C   	    1.4410340000 	    0.0187950000 	   -0.6736010000
C   	    2.5092490000 	   -0.6574480000 	    0.1718400000
O   	    2.9882060000 	   -1.7307580000 	   -0.4488010000
C   	    3.9180960000 	   -2.5112320000 	    0.3123100000
O   	    2.8535550000 	   -0.2738080000 	    1.2638390000
C   	    0.0721460000 	   -0.5800190000 	   -0.4219920000
N   	   -0.2951710000 	   -1.7994430000 	   -0.5445770000
N   	   -0.0300160000 	    1.6777980000 	    0.0540140000
N   	   -0.7088600000 	    0.4645570000 	   -0.0223750000
C   	   -2.0441550000 	    0.2883040000 	    0.3055670000
C   	   -2.7957790000 	    1.5255000000 	    0.7129050000
C   	   -3.2158680000 	    2.3686300000 	   -0.4956160000
C   	   -2.5276450000 	   -0.9730650000 	    0.1872510000
C   	   -3.9466390000 	   -1.3735310000 	    0.4641850000
C   	   -1.6450300000 	   -2.0870170000 	   -0.2417850000
O   	   -2.0689360000 	   -3.2247690000 	   -0.3347530000
H   	    2.5100210000 	    4.6440890000 	    0.0324060000
H   	    1.2494280000 	    3.9146320000 	    1.0461160000
H   	    0.9287710000 	    4.2330800000 	   -0.6609550000
H   	    3.0103800000 	    2.2191530000 	    0.4008840000
H   	    2.7010260000 	    2.5345470000 	   -1.2966050000
H   	    1.7007120000 	   -0.0861680000 	   -1.7331330000
H   	    3.4410060000 	   -2.8776250000 	    1.2237580000
H   	    4.7915200000 	   -1.9099690000 	    0.5758140000
H   	    4.1986560000 	   -3.3412030000 	   -0.3346950000
H   	   -2.1579100000 	    2.1229420000 	    1.3717260000
H   	   -3.6735780000 	    1.2316680000 	    1.2926480000
H   	   -2.3381100000 	    2.7074190000 	   -1.0552570000
H   	   -3.7719780000 	    3.2533680000 	   -0.1701540000
H   	   -3.8548550000 	    1.7906730000 	   -1.1715020000
H   	   -4.5882700000 	   -0.5280350000 	    0.7221690000
H   	   -3.9794580000 	   -2.1067810000 	    1.2767870000
H   	   -4.3636990000 	   -1.8755400000 	   -0.4144940000
