14
tauto -320.809228276
N   	    2.2820440000 	   -0.6278710000 	    0.0367670000
C   	    0.9987850000 	   -0.2042330000 	    0.0011020000
C   	    0.6800950000 	    1.2772490000 	   -0.0004510000
C   	   -0.8512750000 	    1.2540790000 	    0.0011180000
N   	   -0.0051730000 	   -1.0140990000 	   -0.0014890000
C   	   -1.1834840000 	   -0.2366880000 	   -0.0008000000
N   	   -2.3722780000 	   -0.6765000000 	   -0.0033820000
H   	    3.0371320000 	    0.0099820000 	   -0.1513870000
H   	    2.4567350000 	   -1.6145120000 	   -0.0776830000
H   	    1.1088870000 	    1.7623880000 	   -0.8849410000
H   	    1.1131590000 	    1.7618840000 	    0.8814980000
H   	   -1.2884010000 	    1.7347750000 	   -0.8776790000
H   	   -1.2843200000 	    1.7307160000 	    0.8841670000
H   	   -2.3400630000 	   -1.6983780000 	   -0.0030620000
