21
tauto -624.612504566
O   	   -4.2410640000 	   -0.3494370000 	    0.0001940000
C   	   -3.0483470000 	   -0.1113480000 	   -0.0000260000
C   	   -2.5454970000 	    1.2874830000 	    0.0000580000
C   	   -1.2339550000 	    1.5611310000 	   -0.0000400000
N   	   -2.0903360000 	   -1.1331350000 	   -0.0000210000
C   	   -0.8513120000 	   -0.7818330000 	   -0.0001170000
N   	   -0.3408470000 	    0.5038650000 	   -0.0001720000
C   	    1.0583710000 	    0.4626800000 	   -0.0000650000
C   	    2.0110600000 	    1.4667410000 	   -0.0000340000
C   	    3.3499460000 	    1.0763830000 	    0.0000760000
C   	    3.7074910000 	   -0.2728410000 	    0.0001310000
C   	    2.7445470000 	   -1.2813280000 	    0.0000660000
C   	    1.4138700000 	   -0.8933710000 	   -0.0000220000
N   	    0.2321710000 	   -1.6242280000 	   -0.0001790000
H   	   -3.2844750000 	    2.0797610000 	    0.0001720000
H   	   -0.8011620000 	    2.5559920000 	   -0.0000240000
H   	    1.7328610000 	    2.5167250000 	   -0.0000830000
H   	    4.1243880000 	    1.8375260000 	    0.0001160000
H   	    4.7587020000 	   -0.5463220000 	    0.0002160000
H   	    3.0264250000 	   -2.3300180000 	    0.0000890000
H   	    0.1278200000 	   -2.6258670000 	    0.0004120000
