20
tauto -640.651210177
O   	   -0.4397750000 	    2.5076930000 	    0.0003720000
C   	   -0.2953590000 	    1.3025730000 	    0.0001470000
N   	   -1.4210660000 	    0.4489580000 	    0.0000070000
C   	   -2.7678310000 	    0.7668520000 	   -0.0000050000
N   	   -3.5007560000 	   -0.2941410000 	   -0.0002230000
N   	   -2.6162960000 	   -1.3364890000 	   -0.0002920000
C   	   -1.3177890000 	   -0.9300770000 	   -0.0001990000
N   	   -0.2377010000 	   -1.6361210000 	   -0.0002690000
C   	    0.9245530000 	   -0.8821030000 	   -0.0001020000
C   	    0.9477230000 	    0.5334770000 	    0.0001150000
C   	    2.1686030000 	    1.2301800000 	    0.0002930000
C   	    3.3613430000 	    0.5430890000 	    0.0002530000
C   	    3.3463390000 	   -0.8635920000 	    0.0000330000
C   	    2.1586780000 	   -1.5623040000 	   -0.0001400000
H   	   -3.1273000000 	    1.7847730000 	    0.0001320000
H   	   -2.9445810000 	   -2.2880410000 	   -0.0005890000
H   	    2.1342220000 	    2.3162470000 	    0.0004580000
H   	    4.3059250000 	    1.0789950000 	    0.0003890000
H   	    4.2866770000 	   -1.4095980000 	    0.0000010000
H   	    2.1364360000 	   -2.6479400000 	   -0.0003080000
