16
tauto -383.797957544
O   	    1.8013750000 	   -1.3636920000 	   -0.2852710000
C   	    0.7819490000 	   -0.7757690000 	   -0.0162450000
C   	   -0.5208490000 	   -1.4686680000 	    0.3290770000
C   	   -1.7524640000 	   -0.7342470000 	   -0.2131800000
C   	   -1.7524590000 	    0.7342210000 	    0.2132200000
C   	   -0.5208820000 	    1.4686520000 	   -0.3291180000
C   	    0.7819390000 	    0.7757840000 	    0.0161760000
O   	    1.8013210000 	    1.3637280000 	    0.2853210000
H   	   -0.5765350000 	   -1.4962980000 	    1.4283470000
H   	   -0.4583200000 	   -2.5049840000 	   -0.0160750000
H   	   -2.6598060000 	   -1.2346400000 	    0.1418790000
H   	   -1.7677940000 	   -0.7977910000 	   -1.3098430000
H   	   -1.7677190000 	    0.7977660000 	    1.3098840000
H   	   -2.6598280000 	    1.2346040000 	   -0.1417820000
H   	   -0.4583570000 	    2.5049810000 	    0.0159930000
H   	   -0.5766180000 	    1.4962330000 	   -1.4283860000
