16
tauto -542.344058821
C   	   -3.1858910000 	   -0.7830110000 	    0.0002020000
C   	   -1.7486000000 	   -0.3369700000 	   -0.0001460000
N   	   -0.8234480000 	   -1.3530280000 	   -0.0001640000
C   	    0.3997730000 	   -0.9173850000 	   -0.0000520000
N   	    0.8274220000 	    0.3742710000 	   -0.0000730000
N   	    2.1898240000 	    0.4350740000 	    0.0002090000
N   	    2.6245490000 	   -0.7501200000 	    0.0000380000
N   	    1.5739770000 	   -1.6011640000 	   -0.0000090000
C   	   -1.4334210000 	    0.9987710000 	   -0.0001120000
C   	   -0.0804010000 	    1.4970710000 	   -0.0003010000
O   	    0.3371800000 	    2.6298760000 	    0.0001470000
H   	   -3.2383780000 	   -1.8730580000 	   -0.0030320000
H   	   -3.7091720000 	   -0.3986660000 	   -0.8812040000
H   	   -3.7068850000 	   -0.4042010000 	    0.8853760000
H   	    1.7171680000 	   -2.5993300000 	    0.0001390000
H   	   -2.2151880000 	    1.7501560000 	   -0.0000070000
