29
tauto -758.539982258
O   	    0.0532960000 	    1.9935870000 	    0.0214490000
C   	    0.3229830000 	    0.8038810000 	   -0.0201760000
N   	    1.6672060000 	    0.4074690000 	   -0.0251000000
C   	    2.6796600000 	    1.4701810000 	    0.0201060000
C   	    3.9897660000 	    0.9410760000 	    0.5811010000
C   	    4.4053500000 	   -0.3143410000 	   -0.1732350000
N   	    3.3107990000 	   -1.2610060000 	   -0.1166020000
C   	    1.9988020000 	   -0.9155800000 	   -0.1126710000
N   	    1.1149850000 	   -1.8839210000 	   -0.1757930000
N   	   -0.1912070000 	   -1.5581240000 	   -0.1473550000
C   	   -0.6153730000 	   -0.3291510000 	   -0.0685990000
C   	   -2.0897470000 	   -0.1221940000 	   -0.0182680000
C   	   -2.6941740000 	    1.1137900000 	   -0.2735290000
C   	   -4.0802250000 	    1.2402300000 	   -0.2297020000
C   	   -4.8816470000 	    0.1453870000 	    0.0698960000
C   	   -4.2868230000 	   -1.0884460000 	    0.3250830000
C   	   -2.9066840000 	   -1.2211580000 	    0.2818080000
H   	    2.2638680000 	    2.2751500000 	    0.6278430000
H   	    2.8147900000 	    1.8663890000 	   -0.9934950000
H   	    3.8728770000 	    0.7058600000 	    1.6448660000
H   	    4.7592330000 	    1.7133530000 	    0.4892240000
H   	    5.2839740000 	   -0.7742650000 	    0.2883580000
H   	    4.6651830000 	   -0.0640250000 	   -1.2128390000
H   	    3.4663980000 	   -2.2463250000 	   -0.2682980000
H   	   -2.0800080000 	    1.9767210000 	   -0.4983440000
H   	   -4.5329400000 	    2.2079260000 	   -0.4315820000
H   	   -5.9631840000 	    0.2510170000 	    0.1071940000
H   	   -4.9021090000 	   -1.9526530000 	    0.5634340000
H   	   -2.4382600000 	   -2.1808180000 	    0.4751100000
