16
tauto -434.121289219
C   	   -0.3551210000 	   -2.0635620000 	   -0.0449170000
N   	   -0.0912490000 	   -0.6327130000 	   -0.0022430000
C   	   -1.1139190000 	    0.2609070000 	    0.0035870000
N   	   -2.3921600000 	   -0.2286990000 	   -0.0372720000
C   	   -0.8278540000 	    1.6115480000 	   -0.0010760000
C   	    0.5298260000 	    1.9614660000 	   -0.0147630000
N   	    1.5423360000 	    1.1312590000 	   -0.0055600000
C   	    1.2896530000 	   -0.2163060000 	    0.0124900000
O   	    2.1473530000 	   -1.0777460000 	    0.0350690000
H   	   -1.0237240000 	   -2.3014290000 	   -0.8780350000
H   	   -0.7940100000 	   -2.4140950000 	    0.8973640000
H   	    0.6071740000 	   -2.5532280000 	   -0.1836850000
H   	   -2.5708690000 	   -1.1433450000 	    0.3476780000
H   	   -3.1202680000 	    0.4456740000 	    0.1435520000
H   	   -1.6166700000 	    2.3539590000 	    0.0037210000
H   	    0.7915490000 	    3.0211880000 	   -0.0275490000
