37
tauto -1115.96650633
C   	   -5.7872940000 	    1.5713600000 	    0.4399530000
C   	   -4.6403660000 	    2.4266540000 	   -0.0317600000
N   	   -3.3962230000 	    1.8459490000 	   -0.2658570000
C   	   -2.9004360000 	    0.5565180000 	   -0.1552460000
N   	   -3.7168240000 	   -0.4162480000 	    0.2827250000
C   	   -3.2325860000 	   -1.6484380000 	    0.3870560000
O   	   -4.0453810000 	   -2.6097850000 	    0.8185180000
C   	   -1.9037850000 	   -1.9227510000 	    0.0516270000
N   	   -1.1174660000 	   -3.0644310000 	    0.0466900000
C   	    0.0321910000 	   -2.6438470000 	   -0.3827510000
N   	    0.0676320000 	   -1.2919630000 	   -0.6806950000
C   	    1.2099990000 	   -0.5206280000 	   -1.0747210000
O   	    2.0427450000 	   -0.3521510000 	    0.0389500000
C   	    3.2154620000 	    0.3690360000 	   -0.2757020000
C   	    4.0631010000 	    0.3823060000 	    0.9848400000
O   	    5.2284240000 	    1.1908370000 	    0.8029360000
C   	    6.2622780000 	    0.6057080000 	    0.1596180000
C   	    7.4439390000 	    1.5349190000 	    0.0931340000
O   	    6.2199520000 	   -0.5148980000 	   -0.2872920000
C   	   -1.1825840000 	   -0.8123060000 	   -0.3859670000
N   	   -1.6224870000 	    0.4391680000 	   -0.5113160000
O   	   -4.7524400000 	    3.6208960000 	   -0.2251250000
H   	   -5.5496990000 	    1.0862160000 	    1.3894200000
H   	   -6.0033080000 	    0.7772010000 	   -0.2787380000
H   	   -6.6506580000 	    2.2283570000 	    0.5521100000
H   	   -2.7094000000 	    2.5161010000 	   -0.5878290000
H   	   -4.9042460000 	   -2.1905780000 	    0.9885720000
H   	    0.9153720000 	   -3.2583730000 	   -0.5134690000
H   	    0.8397660000 	    0.4408430000 	   -1.4553900000
H   	    1.7436430000 	   -1.0485710000 	   -1.8794320000
H   	    2.9741430000 	    1.3996870000 	   -0.5794300000
H   	    3.7693040000 	   -0.1171260000 	   -1.0922430000
H   	    4.3493820000 	   -0.6373930000 	    1.2534130000
H   	    3.5097930000 	    0.8404590000 	    1.8067120000
H   	    7.1579450000 	    2.4707760000 	   -0.3950240000
H   	    8.2514210000 	    1.0545640000 	   -0.4592490000
H   	    7.7782060000 	    1.7801200000 	    1.1053720000
