26
tauto -719.227457422
O   	    0.3471900000 	    2.0459740000 	    0.1083150000
C   	    0.6191860000 	    0.8611210000 	    0.0203130000
N   	    1.9373960000 	    0.4456000000 	    0.0153300000
C   	    3.1045820000 	    1.3182950000 	    0.0585070000
C   	    4.2327890000 	    0.3027910000 	    0.3212750000
N   	    3.6579730000 	   -0.9399300000 	   -0.1928150000
C   	    2.2922850000 	   -0.8613830000 	   -0.1378110000
N   	    1.4623550000 	   -1.8530730000 	   -0.2276000000
N   	    0.1384810000 	   -1.5251750000 	   -0.1881340000
C   	   -0.2995440000 	   -0.3047300000 	   -0.0751100000
C   	   -1.7769130000 	   -0.1218040000 	   -0.0207480000
C   	   -2.3929580000 	    1.1151180000 	   -0.2403230000
C   	   -3.7804980000 	    1.2243980000 	   -0.1981450000
C   	   -4.5694570000 	    0.1113440000 	    0.0653130000
C   	   -3.9622390000 	   -1.1233300000 	    0.2856310000
C   	   -2.5807300000 	   -1.2394240000 	    0.2429130000
H   	    2.9912280000 	    2.0672570000 	    0.8437690000
H   	    3.2170450000 	    1.8289250000 	   -0.9033170000
H   	    4.4522440000 	    0.2324120000 	    1.3951920000
H   	    5.1510860000 	    0.5621200000 	   -0.2102040000
H   	    4.0718980000 	   -1.8323750000 	    0.0337420000
H   	   -1.7876970000 	    1.9915920000 	   -0.4357670000
H   	   -4.2440030000 	    2.1921890000 	   -0.3725600000
H   	   -5.6522520000 	    0.2033650000 	    0.1013700000
H   	   -4.5687650000 	   -2.0009610000 	    0.4951360000
H   	   -2.1007600000 	   -2.1986510000 	    0.4077760000
