14
tauto -487.008362229
O   	    1.5344390000 	    2.0171640000 	    0.0000870000
C   	    1.1846590000 	    0.8541700000 	    0.0000090000
N   	   -0.1756580000 	    0.4954150000 	   -0.0000110000
C   	   -1.3055780000 	    1.3157010000 	   -0.0000570000
C   	   -2.3731210000 	    0.4935730000 	   -0.0000330000
N   	   -1.9130920000 	   -0.8171320000 	    0.0000110000
C   	   -0.5520060000 	   -0.8191770000 	   -0.0000010000
N   	    0.2403610000 	   -1.8621060000 	    0.0000290000
N   	    1.5623020000 	   -1.5780170000 	   -0.0000420000
C   	    2.0039210000 	   -0.3510250000 	   -0.0000410000
H   	   -1.2105820000 	    2.3896650000 	   -0.0000960000
H   	   -3.4279950000 	    0.7217560000 	   -0.0000830000
H   	   -2.4626560000 	   -1.6614270000 	    0.0004340000
H   	    3.0810850000 	   -0.2138760000 	   -0.0001120000
