11
tauto -376.570148117
O   	   -2.3693040000 	   -0.4444920000 	    0.0248430000
C   	   -1.1951870000 	   -0.1743360000 	   -0.0429780000
C   	   -0.0000310000 	   -1.1074150000 	    0.0004020000
N   	   -0.6941180000 	    1.1227820000 	   -0.1406490000
N   	    0.6943000000 	    1.1230690000 	    0.1406380000
C   	    1.1951780000 	   -0.1744720000 	    0.0434330000
O   	    2.3692060000 	   -0.4445600000 	   -0.0253990000
H   	    0.0525880000 	   -1.7528640000 	   -0.8807900000
H   	   -0.0527370000 	   -1.7520400000 	    0.8822110000
H   	   -1.2174010000 	    1.8173310000 	    0.3804300000
H   	    1.2172970000 	    1.8163790000 	   -0.3824710000
