11
tauto -231.169059985
C   	   -0.8385130000 	    1.2979230000 	   -0.0000350000
C   	   -0.5471190000 	   -0.1882390000 	   -0.0000200000
C   	    0.8733880000 	   -0.6444030000 	   -0.0000750000
C   	    1.9292150000 	    0.1665350000 	    0.0000550000
O   	   -1.4412650000 	   -1.0113050000 	    0.0000640000
H   	   -0.4057120000 	    1.7787250000 	   -0.8841660000
H   	   -0.4060780000 	    1.7786280000 	    0.8843320000
H   	   -1.9197970000 	    1.4428670000 	   -0.0002310000
H   	    0.9898660000 	   -1.7260640000 	   -0.0001950000
H   	    1.8268830000 	    1.2493960000 	    0.0001680000
H   	    2.9431310000 	   -0.2240020000 	    0.0000310000
