21
tauto -532.603675394
C   	    3.6319950000 	    0.7530970000 	    0.0125940000
C   	    2.4058600000 	   -0.1303840000 	   -0.0349770000
N   	    1.2127050000 	    0.5554450000 	    0.0844850000
C   	   -0.0624220000 	    0.0065740000 	    0.0794430000
N   	   -0.2441130000 	   -1.3388200000 	    0.1894730000
C   	   -1.6579590000 	   -1.6205100000 	    0.0186890000
C   	   -1.2195240000 	    0.7327450000 	    0.0033870000
C   	   -1.3999190000 	    2.2164120000 	   -0.0354520000
C   	   -2.3049370000 	   -0.2248190000 	   -0.0246340000
O   	   -3.5063880000 	   -0.0220700000 	   -0.0766040000
O   	    2.4616430000 	   -1.3393210000 	   -0.1644410000
H   	    3.7224130000 	    1.2284850000 	    0.9950720000
H   	    3.5788340000 	    1.5424190000 	   -0.7446370000
H   	    4.5116220000 	    0.1359350000 	   -0.1697110000
H   	    1.2454860000 	    1.5646330000 	    0.1168460000
H   	    0.5014190000 	   -1.9598300000 	   -0.0899190000
H   	   -2.0621870000 	   -2.2069500000 	    0.8492510000
H   	   -1.8587360000 	   -2.1517290000 	   -0.9188820000
H   	   -0.9144420000 	    2.6848190000 	   -0.9022750000
H   	   -1.0328010000 	    2.7169430000 	    0.8707030000
H   	   -2.4723540000 	    2.4213520000 	   -0.1100980000
