14
tauto -487.009016116
O   	    3.0158340000 	   -0.6326520000 	   -0.0003240000
C   	    1.8434860000 	   -0.3061490000 	   -0.0000040000
N   	    0.7872510000 	   -1.1989270000 	    0.0001860000
C   	   -0.3901120000 	   -0.6428240000 	   -0.0000640000
N   	   -1.6059500000 	   -1.2556480000 	    0.0002290000
C   	   -2.6202280000 	   -0.3018390000 	   -0.0000180000
C   	   -2.0438440000 	    0.9153970000 	    0.0000700000
N   	   -0.6679820000 	    0.6969850000 	   -0.0006700000
N   	    0.3015630000 	    1.6456260000 	    0.0001090000
C   	    1.4904840000 	    1.1528280000 	    0.0003340000
H   	   -1.7067800000 	   -2.2580140000 	    0.0006100000
H   	   -3.6626640000 	   -0.5792830000 	   -0.0001260000
H   	   -2.4514670000 	    1.9137250000 	   -0.0002570000
H   	    2.3113470000 	    1.8640550000 	    0.0014800000
