23
tauto -571.676435314
C   	   -3.6958010000 	   -1.2914170000 	   -0.1961510000
C   	   -2.5102080000 	   -0.3961590000 	   -0.0498500000
N   	   -1.4512780000 	   -0.7866180000 	    0.7140620000
C   	   -0.5009780000 	    0.3007120000 	    0.7718360000
C   	    0.9175850000 	   -0.0388050000 	    0.3719860000
C   	    1.2648620000 	   -1.2896950000 	   -0.1316740000
C   	    2.5809680000 	   -1.5569610000 	   -0.5011630000
C   	    3.5561540000 	   -0.5743820000 	   -0.3742390000
C   	    3.2096720000 	    0.6810260000 	    0.1204670000
C   	    1.8981840000 	    0.9481230000 	    0.4928780000
N   	   -2.4050970000 	    0.7603650000 	   -0.6337920000
C   	   -1.1836460000 	    1.3019740000 	   -0.2065480000
O   	   -0.7175810000 	    2.3697700000 	   -0.5132760000
H   	   -4.1641510000 	   -1.4698980000 	    0.7780610000
H   	   -3.3936770000 	   -2.2595500000 	   -0.6083800000
H   	   -4.4206750000 	   -0.8229480000 	   -0.8618250000
H   	   -1.5150010000 	   -1.5123830000 	    1.4105790000
H   	   -0.5047680000 	    0.7686040000 	    1.7658250000
H   	    0.5017060000 	   -2.0556780000 	   -0.2423860000
H   	    2.8413060000 	   -2.5370190000 	   -0.8931520000
H   	    4.5832780000 	   -0.7831190000 	   -0.6621340000
H   	    3.9647390000 	    1.4572080000 	    0.2144870000
H   	    1.6217650000 	    1.9339020000 	    0.8579900000
