16
tauto -379.964090899
C   	    0.0933260000 	    2.1405760000 	   -0.0000210000
C   	    0.0284950000 	    0.6462100000 	   -0.0000310000
C   	   -1.0669680000 	   -0.1944950000 	   -0.0000770000
C   	   -2.5335530000 	    0.0925220000 	    0.0002400000
N   	   -0.5819180000 	   -1.4604640000 	   -0.0001360000
H   	   -1.1037820000 	   -2.3207670000 	   -0.0000360000
N   	    0.7700790000 	   -1.5161600000 	   -0.0000510000
C   	    1.1249360000 	   -0.2486870000 	   -0.0000320000
O   	    2.4218980000 	    0.1344740000 	    0.0000030000
H   	   -0.9081910000 	    2.5830220000 	    0.0028180000
H   	    0.6212010000 	    2.5170040000 	   -0.8832210000
H   	    0.6258870000 	    2.5165280000 	    0.8805490000
H   	   -2.7062080000 	    1.1716170000 	   -0.0050140000
H   	   -3.0239130000 	   -0.3195250000 	    0.8893760000
H   	   -3.0258460000 	   -0.3283140000 	   -0.8836860000
H   	    2.9511210000 	   -0.6757450000 	    0.0000150000
