17
tauto -458.983407277
C   	   -2.4716860000 	   -0.8334850000 	   -0.2180260000
C   	   -1.0765780000 	   -0.5852380000 	    0.3162360000
C   	   -0.6288690000 	    0.8588600000 	    0.1998650000
O   	   -1.2583420000 	    1.8587470000 	    0.4253530000
O   	   -0.1202330000 	   -1.3254550000 	   -0.4424730000
C   	    1.1516580000 	   -0.6761180000 	   -0.4420930000
C   	    2.0714100000 	   -1.1957160000 	    0.6587630000
C   	    0.8436920000 	    0.7976660000 	   -0.2582970000
O   	    1.5820600000 	    1.7383650000 	   -0.3877720000
H   	   -3.1884150000 	   -0.2168120000 	    0.3318050000
H   	   -2.7399240000 	   -1.8868660000 	   -0.1040400000
H   	   -2.5211060000 	   -0.5720440000 	   -1.2788660000
H   	   -1.0216870000 	   -0.8711340000 	    1.3814760000
H   	    1.6034990000 	   -0.8436470000 	   -1.4254910000
H   	    1.6305540000 	   -1.0379840000 	    1.6495800000
H   	    3.0321730000 	   -0.6730990000 	    0.6213280000
H   	    2.2392640000 	   -2.2674930000 	    0.5246510000
