22
tauto -649.496266704
C   	    2.4337710000 	    0.0000310000 	    1.6322550000
C   	    2.5745340000 	    0.0000030000 	    0.1291630000
C   	    1.2714300000 	    0.0000030000 	   -0.6739560000
C   	    0.3669670000 	    1.2092070000 	   -0.3926410000
C   	   -1.0128910000 	    0.6954880000 	   -0.1619890000
C   	   -1.0128880000 	   -0.6954920000 	   -0.1619840000
C   	   -2.1803880000 	   -1.4182840000 	    0.0554350000
C   	   -3.3529060000 	   -0.7011090000 	    0.2661380000
C   	   -3.3529090000 	    0.7010970000 	    0.2661340000
C   	   -2.1803950000 	    1.4182760000 	    0.0554260000
O   	    0.7189600000 	    2.3639390000 	   -0.3449910000
C   	    0.3669740000 	   -1.2092040000 	   -0.3926300000
O   	    0.7189720000 	   -2.3639340000 	   -0.3449750000
O   	    3.6420880000 	   -0.0000290000 	   -0.4338960000
H   	    1.8783750000 	   -0.8867620000 	    1.9592690000
H   	    1.8783650000 	    0.8868290000 	    1.9592400000
H   	    3.4236950000 	    0.0000430000 	    2.0905360000
H   	    1.5501980000 	   -0.0000010000 	   -1.7342860000
H   	   -2.1628870000 	   -2.5045500000 	    0.0579240000
H   	   -4.2863970000 	   -1.2309540000 	    0.4361100000
H   	   -4.2864030000 	    1.2309390000 	    0.4361020000
H   	   -2.1628990000 	    2.5045430000 	    0.0579070000
