16
tauto -509.101466829
O   	    3.2558000000 	   -0.6145700000 	   -0.0000780000
C   	    1.9757860000 	   -0.2150310000 	    0.0006650000
N   	    1.0252850000 	   -1.0974540000 	    0.0002350000
C   	   -0.2515880000 	   -0.6093180000 	   -0.0003510000
N   	   -1.2527300000 	   -1.5183010000 	   -0.0001480000
C   	   -2.4836490000 	   -1.0555720000 	   -0.0000520000
C   	   -2.8310590000 	    0.3146230000 	   -0.0000920000
C   	   -1.8218680000 	    1.2418570000 	   -0.0001090000
C   	   -0.4878850000 	    0.7843790000 	   -0.0001700000
N   	    0.5425780000 	    1.6898840000 	    0.0000110000
C   	    1.7448760000 	    1.2030600000 	    0.0001950000
H   	    3.2395320000 	   -1.5855550000 	   -0.0002010000
H   	   -3.2734110000 	   -1.8064160000 	   -0.0000570000
H   	   -3.8761460000 	    0.6083770000 	   -0.0000590000
H   	   -2.0032750000 	    2.3130980000 	   -0.0000720000
H   	    2.5932920000 	    1.8841610000 	   -0.0001810000
