17
tauto -493.078170966
O   	   -1.7932690000 	    1.9695860000 	    0.0001260000
C   	   -1.3840580000 	    0.6957260000 	   -0.0000430000
N   	   -2.2829460000 	   -0.2512870000 	    0.0000640000
C   	   -1.8077450000 	   -1.5264290000 	    0.0001500000
N   	   -0.5640730000 	   -1.9158510000 	   -0.0001010000
C   	    0.3777430000 	   -0.9195560000 	   -0.0001220000
C   	    1.7521560000 	   -1.2599230000 	    0.0000020000
C   	    2.7028790000 	   -0.2710020000 	    0.0001890000
C   	    2.3340830000 	    1.0959510000 	    0.0000570000
C   	    1.0099130000 	    1.4528010000 	   -0.0002820000
C   	    0.0200860000 	    0.4437570000 	   -0.0002030000
H   	   -2.7640490000 	    1.9413250000 	    0.0005850000
H   	   -2.5721300000 	   -2.3015410000 	   -0.0002950000
H   	    2.0136850000 	   -2.3137430000 	    0.0001180000
H   	    3.7573940000 	   -0.5354070000 	    0.0005620000
H   	    3.1063220000 	    1.8599580000 	    0.0001970000
H   	    0.7037260000 	    2.4947280000 	   -0.0004020000
