15
tauto -345.721610343
O   	    2.3334360000 	   -0.0302630000 	    0.0122950000
C   	    1.1303550000 	   -0.0144510000 	   -0.0105090000
O   	    0.4619020000 	   -1.1889100000 	   -0.0452290000
C   	   -0.9513150000 	   -1.2728370000 	    0.1812590000
C   	   -1.7227230000 	   -0.0695560000 	   -0.3271260000
C   	   -1.1288040000 	    1.1914370000 	    0.2880140000
C   	    0.3429030000 	    1.2833810000 	   -0.1074550000
H   	   -1.1117190000 	   -1.3960220000 	    1.2605920000
H   	   -1.2619950000 	   -2.1961760000 	   -0.3139130000
H   	   -2.7792590000 	   -0.1907650000 	   -0.0629250000
H   	   -1.6606050000 	   -0.0225040000 	   -1.4221180000
H   	   -1.2250610000 	    1.1427530000 	    1.3808480000
H   	   -1.6637100000 	    2.0891500000 	   -0.0391210000
H   	    0.8915730000 	    2.0287380000 	    0.4738490000
H   	    0.4255700000 	    1.5903700000 	   -1.1588430000
