14
tauto -419.70576273
C   	    2.4290790000 	    0.1774370000 	   -0.2140380000
C   	    1.0896270000 	   -0.1910150000 	    0.4051420000
C   	    0.4656210000 	   -1.5076860000 	   -0.0701230000
O   	   -0.9664070000 	   -1.3397140000 	   -0.0191870000
C   	   -1.3134120000 	   -0.0363030000 	   -0.0177120000
O   	   -2.4368520000 	    0.3668050000 	   -0.0820190000
C   	   -0.0184150000 	    0.7913540000 	    0.1029210000
O   	    0.0474080000 	    1.9827060000 	   -0.0327560000
H   	    3.2093060000 	   -0.5319780000 	    0.0782090000
H   	    2.7270720000 	    1.1775210000 	    0.1124690000
H   	    2.3635570000 	    0.1870930000 	   -1.3072820000
H   	    1.1748230000 	   -0.2165580000 	    1.5017900000
H   	    0.7120030000 	   -2.3669290000 	    0.5557370000
H   	    0.7450430000 	   -1.7302460000 	   -1.1063680000
