19
tauto -423.111553562
C   	   -1.9438490000 	    0.5629970000 	    1.1174930000
C   	   -1.5925890000 	   -0.2503240000 	   -0.1059350000
C   	   -0.1197700000 	   -0.3683630000 	   -0.4767910000
C   	    0.6590500000 	   -1.4299700000 	    0.3187550000
C   	    2.1314310000 	   -1.0274570000 	    0.1194800000
C   	    2.1136990000 	    0.5032890000 	    0.1765680000
C   	    0.7177930000 	    0.9005020000 	   -0.2935350000
O   	    0.3287590000 	    2.0296440000 	   -0.4755770000
O   	   -2.4343420000 	   -0.8127950000 	   -0.7713380000
H   	   -1.8066710000 	    1.6242470000 	    0.8829710000
H   	   -1.2827270000 	    0.3288280000 	    1.9601050000
H   	   -2.9830560000 	    0.3768150000 	    1.3928940000
H   	   -0.0851160000 	   -0.6242500000 	   -1.5447180000
H   	    0.4401330000 	   -2.4468050000 	   -0.0167270000
H   	    0.3969450000 	   -1.3683220000 	    1.3840180000
H   	    2.4732490000 	   -1.3647710000 	   -0.8663740000
H   	    2.7920390000 	   -1.4764000000 	    0.8664030000
H   	    2.8798580000 	    1.0008260000 	   -0.4247400000
H   	    2.2254130000 	    0.8709980000 	    1.2052700000
