16
tauto -379.968991227
C   	   -2.8064890000 	   -0.2617390000 	    0.0000170000
C   	   -1.3274550000 	   -0.0714650000 	   -0.0000360000
C   	   -0.6167460000 	    1.2515610000 	    0.0000940000
N   	   -0.5131600000 	   -1.0634670000 	   -0.0000730000
N   	    0.7777970000 	   -0.5581910000 	    0.0000150000
C   	    1.9049540000 	   -1.4531070000 	    0.0000420000
C   	    0.8421910000 	    0.8120310000 	   -0.0000170000
O   	    1.8519370000 	    1.4867520000 	   -0.0000800000
H   	   -3.2606170000 	    0.2029330000 	    0.8828900000
H   	   -3.0426990000 	   -1.3283710000 	   -0.0002870000
H   	   -3.2605160000 	    0.2033050000 	   -0.8827240000
H   	   -0.8384760000 	    1.8608620000 	    0.8831430000
H   	   -0.8386430000 	    1.8610070000 	   -0.8828130000
H   	    1.8961180000 	   -2.0868970000 	    0.8922020000
H   	    2.8026050000 	   -0.8314530000 	   -0.0003060000
H   	    1.8955440000 	   -2.0874780000 	   -0.8916620000
