19
tauto -457.166114469
N   	    3.4019450000 	   -0.5648650000 	   -0.0638390000
C   	    2.0716580000 	   -0.1881220000 	   -0.0106520000
C   	    1.0392980000 	   -1.1049570000 	   -0.0090140000
C   	   -0.2941480000 	   -0.6423130000 	   -0.0031990000
C   	   -1.4276580000 	   -1.5043320000 	   -0.0010470000
C   	   -2.6926720000 	   -0.9827250000 	    0.0034260000
C   	   -2.9073430000 	    0.4210020000 	    0.0063880000
C   	   -1.8365370000 	    1.2720120000 	    0.0041700000
C   	   -0.5139550000 	    0.7572570000 	   -0.0013080000
C   	    0.6323710000 	    1.5902240000 	   -0.0004700000
N   	    1.8680400000 	    1.1592700000 	   -0.0024340000
H   	    3.6280980000 	   -1.4701980000 	    0.3199240000
H   	    4.0363710000 	    0.1704460000 	    0.2138160000
H   	    1.2463010000 	   -2.1725340000 	   -0.0221790000
H   	   -1.2714610000 	   -2.5808680000 	   -0.0041820000
H   	   -3.5506790000 	   -1.6508030000 	    0.0044620000
H   	   -3.9216790000 	    0.8102870000 	    0.0101700000
H   	   -1.9815880000 	    2.3507580000 	    0.0061410000
H   	    0.4986600000 	    2.6738030000 	    0.0060010000
