19
tauto -643.410798142
O   	   -3.8142890000 	    0.5644510000 	    0.0002530000
N   	   -2.9795720000 	   -0.3245220000 	   -0.0000900000
C   	   -1.5673160000 	    0.0644010000 	   -0.0000640000
C   	   -1.2471210000 	    1.4150140000 	   -0.0002860000
C   	    0.0880530000 	    1.8075070000 	   -0.0003360000
C   	   -0.5973740000 	   -0.9400510000 	    0.0001530000
C   	    0.7247350000 	   -0.5535790000 	    0.0001630000
C   	    1.9998230000 	   -1.3517800000 	    0.0003310000
C   	    1.0560690000 	    0.8123810000 	   -0.0000890000
N   	    2.4384430000 	    0.9468510000 	   -0.0001110000
C   	    3.0925260000 	   -0.2790980000 	    0.0002650000
O   	    4.2896600000 	   -0.4315130000 	   -0.0000420000
O   	   -3.2373360000 	   -1.5168900000 	   -0.0001240000
H   	   -2.0474190000 	    2.1461210000 	   -0.0004300000
H   	    0.3557630000 	    2.8597920000 	   -0.0005490000
H   	   -0.9026070000 	   -1.9809210000 	    0.0002860000
H   	    2.1182100000 	   -1.9890710000 	   -0.8821800000
H   	    2.1181390000 	   -1.9886910000 	    0.8831300000
H   	    2.9451690000 	    1.8193060000 	   -0.0003800000
