30
tauto -763.371428489
O   	   -1.4548420000 	    2.8420180000 	   -0.0405830000
C   	   -0.7684130000 	    1.8707510000 	    0.1749730000
N   	    0.5533200000 	    1.6978150000 	   -0.1939880000
C   	    1.0084420000 	    0.4671350000 	    0.2819920000
C   	    2.3983000000 	    0.0191220000 	    0.0578040000
C   	    2.8608260000 	   -1.0902630000 	    0.7704610000
C   	    4.1578180000 	   -1.5466770000 	    0.5833690000
C   	    5.0036000000 	   -0.9011460000 	   -0.3167890000
C   	    4.5461260000 	    0.2002710000 	   -1.0323820000
C   	    3.2465040000 	    0.6601070000 	   -0.8460370000
N   	    0.1279710000 	   -0.2124230000 	    0.9155020000
C   	   -1.1012380000 	    0.5719380000 	    0.9242770000
C   	   -2.2978820000 	   -0.1590370000 	    0.3361700000
C   	   -3.5119760000 	    0.5146270000 	    0.1855040000
C   	   -4.6171790000 	   -0.1473510000 	   -0.3366620000
C   	   -4.5223360000 	   -1.4861290000 	   -0.7091680000
C   	   -3.3140780000 	   -2.1575230000 	   -0.5586290000
C   	   -2.2038700000 	   -1.4975250000 	   -0.0380840000
H   	    1.0944880000 	    2.4141890000 	   -0.6517350000
H   	    2.1842890000 	   -1.5786140000 	    1.4655610000
H   	    4.5127490000 	   -2.4087120000 	    1.1416680000
H   	    6.0193450000 	   -1.2595050000 	   -0.4621540000
H   	    5.1994280000 	    0.7023090000 	   -1.7407280000
H   	    2.8993080000 	    1.5095960000 	   -1.4297310000
H   	   -1.3331490000 	    0.8469220000 	    1.9632090000
H   	   -3.5801980000 	    1.5644830000 	    0.4582020000
H   	   -5.5574010000 	    0.3856560000 	   -0.4540900000
H   	   -5.3884190000 	   -2.0020710000 	   -1.1160970000
H   	   -3.2307980000 	   -3.2025760000 	   -0.8470030000
H   	   -1.2578210000 	   -2.0153610000 	    0.0861710000
