17
tauto -363.935481178
C   	    0.0734450000 	    2.1742610000 	    0.0019760000
C   	    0.0400190000 	    0.6803230000 	    0.0100050000
C   	   -1.0125050000 	   -0.1764910000 	   -0.0125470000
C   	   -2.4738620000 	    0.1323780000 	    0.0122080000
N   	   -0.6327460000 	   -1.5069710000 	   -0.1209820000
C   	    0.8120770000 	   -1.5904340000 	    0.0279210000
C   	    1.2596240000 	   -0.1234020000 	    0.0108180000
O   	    2.4159060000 	    0.2545820000 	   -0.0073500000
H   	   -0.9202860000 	    2.6117480000 	   -0.1358150000
H   	    0.7202100000 	    2.5349730000 	   -0.8053830000
H   	    0.4903010000 	    2.5644490000 	    0.9375090000
H   	   -2.6523910000 	    1.2060690000 	    0.0963160000
H   	   -2.9582060000 	   -0.3611900000 	    0.8636890000
H   	   -2.9543500000 	   -0.2356500000 	   -0.9005580000
H   	   -1.2032240000 	   -2.1886100000 	    0.3596680000
H   	    1.2819530000 	   -2.1456710000 	   -0.7897180000
H   	    1.1051780000 	   -2.0537920000 	    0.9776910000
