11
tauto -430.689482183
O   	   -2.2834170000 	   -0.9414710000 	   -0.0000430000
C   	   -1.0926260000 	   -0.3304470000 	    0.0000250000
C   	   -1.0379250000 	    1.1175050000 	    0.0001770000
N   	    0.1052740000 	    1.7215980000 	    0.0000230000
N   	    1.1745220000 	    0.9421540000 	   -0.0002410000
N   	   -0.0459100000 	   -1.0808590000 	   -0.0001390000
C   	    1.1966860000 	   -0.4682480000 	   -0.0000090000
O   	    2.2607630000 	   -1.0413090000 	    0.0001950000
H   	   -2.9946120000 	   -0.2867740000 	   -0.0000530000
H   	   -1.9271570000 	    1.7417510000 	    0.0003960000
H   	    2.0689860000 	    1.4141540000 	   -0.0002180000
