20
tauto -640.643860195
O   	   -0.8632520000 	    2.9134370000 	   -0.0000310000
C   	   -0.2801180000 	    1.8460080000 	    0.0000090000
C   	   -1.0530480000 	    0.5557450000 	    0.0000020000
C   	   -0.4111170000 	   -0.6866790000 	   -0.0000270000
C   	   -1.1158730000 	   -1.8888230000 	   -0.0000260000
C   	   -2.5006120000 	   -1.8337310000 	    0.0000070000
C   	   -3.1702810000 	   -0.6050740000 	    0.0000350000
C   	   -2.4493980000 	    0.5776650000 	    0.0000320000
N   	    1.1122940000 	    1.7686700000 	    0.0000050000
C   	    1.6152390000 	    0.5785620000 	   -0.0000160000
N   	    0.9821420000 	   -0.6304270000 	   -0.0000640000
N   	    1.8465050000 	   -1.6958430000 	   -0.0000140000
C   	    3.0148790000 	   -1.1413310000 	    0.0000500000
N   	    2.9449080000 	    0.2283230000 	    0.0000030000
H   	   -0.5767540000 	   -2.8306120000 	   -0.0000490000
H   	   -3.0690040000 	   -2.7601050000 	    0.0000100000
H   	   -4.2563620000 	   -0.5809620000 	    0.0000600000
H   	   -2.9349090000 	    1.5491210000 	    0.0000530000
H   	    3.9450120000 	   -1.6908900000 	    0.0000830000
H   	    3.6990710000 	    0.8968500000 	    0.0001800000
