9
tauto -317.412829728
O   	   -2.0155390000 	    0.0428050000 	    0.0001300000
C   	   -0.8020370000 	    0.0118310000 	    0.0000170000
N   	    0.0566140000 	   -1.0624260000 	   -0.0000700000
N   	    1.3844010000 	   -0.7254130000 	   -0.0000950000
C   	    1.3771140000 	    0.5657150000 	    0.0000050000
N   	    0.1029530000 	    1.0743390000 	   -0.0000580000
H   	   -0.2219860000 	   -2.0292120000 	    0.0001320000
H   	    2.2691630000 	    1.1759510000 	   -0.0000040000
H   	   -0.1810970000 	    2.0400440000 	    0.0002620000
