14
tauto -382.568783287
O   	   -1.5724270000 	   -1.5164830000 	   -0.3129380000
C   	   -0.6486580000 	   -0.8101900000 	    0.0069860000
C   	    0.7108000000 	   -1.3266580000 	    0.4232160000
C   	    1.8568080000 	   -0.5188630000 	   -0.1974590000
C   	    1.6270100000 	    0.9644690000 	   -0.1130150000
C   	    0.4209190000 	    1.5289040000 	    0.0205870000
C   	   -0.8206580000 	    0.7263600000 	    0.0517460000
O   	   -1.9276200000 	    1.2151280000 	    0.0908410000
H   	    0.7749240000 	   -2.3914920000 	    0.1845740000
H   	    0.7624160000 	   -1.2244030000 	    1.5169080000
H   	    1.9854790000 	   -0.7935950000 	   -1.2537960000
H   	    2.8020900000 	   -0.7744660000 	    0.2937380000
H   	    2.5061700000 	    1.6034970000 	   -0.1836380000
H   	    0.2919750000 	    2.6071700000 	    0.0666320000
