26
tauto -689.779324638
O   	   -0.1179450000 	    2.4606670000 	    0.0599450000
C   	   -0.4821650000 	    1.3292800000 	    0.2874890000
C   	   -1.7367380000 	    0.6548760000 	   -0.0599100000
C   	   -2.8598610000 	    1.0801460000 	   -0.7672900000
C   	   -3.9084580000 	    0.1875620000 	   -0.9276240000
C   	   -3.8232020000 	   -1.1042330000 	   -0.3837700000
C   	   -2.7087210000 	   -1.5379450000 	    0.3233670000
C   	   -1.6664930000 	   -0.6280610000 	    0.4699340000
O   	   -0.5118500000 	   -0.8930270000 	    1.1331630000
C   	    0.3310000000 	    0.2659930000 	    1.0599150000
C   	    1.6584670000 	   -0.0467130000 	    0.4036930000
C   	    1.9460780000 	   -1.3202330000 	   -0.0796030000
C   	    3.1764990000 	   -1.5751340000 	   -0.6799000000
C   	    4.1217470000 	   -0.5626360000 	   -0.8000150000
C   	    3.8328010000 	    0.7119480000 	   -0.3180090000
C   	    2.6067280000 	    0.9711910000 	    0.2825490000
H   	   -2.8947460000 	    2.0868970000 	   -1.1748620000
H   	   -4.8003120000 	    0.4819500000 	   -1.4727550000
H   	   -4.6562130000 	   -1.7896220000 	   -0.5198850000
H   	   -2.6434660000 	   -2.5356970000 	    0.7449850000
H   	    0.4862590000 	    0.6252530000 	    2.0846590000
H   	    1.2078010000 	   -2.1094150000 	    0.0209770000
H   	    3.3943490000 	   -2.5720030000 	   -1.0549180000
H   	    5.0818810000 	   -0.7639340000 	   -1.2681440000
H   	    4.5656740000 	    1.5092870000 	   -0.4107450000
H   	    2.3710380000 	    1.9699190000 	    0.6408650000
