13
tauto -503.032361207
O   	    1.4827750000 	   -2.0552180000 	    0.0000510000
C   	    1.1817730000 	   -0.8872770000 	   -0.0001590000
N   	   -0.2010910000 	   -0.4762740000 	   -0.0000610000
N   	   -1.2852650000 	   -1.3055430000 	    0.0000320000
N   	   -2.3189020000 	   -0.5815690000 	    0.0000600000
N   	   -1.9451280000 	    0.7174050000 	   -0.0000280000
C   	   -0.5909170000 	    0.8298900000 	   -0.0000080000
N   	    0.1652770000 	    1.8853610000 	   -0.0000190000
C   	    1.4949830000 	    1.5571090000 	    0.0000400000
C   	    2.0162620000 	    0.2951740000 	    0.0000320000
H   	   -2.6343990000 	    1.4536270000 	    0.0000320000
H   	    2.1681610000 	    2.4111940000 	    0.0001110000
H   	    3.0871940000 	    0.1318890000 	    0.0001330000
