10
tauto -301.375770607
O   	   -2.0370490000 	   -0.0151820000 	   -0.0004950000
C   	   -0.8294780000 	    0.0029530000 	    0.0001850000
N   	    0.0203710000 	   -1.0953250000 	    0.0009420000
C   	    1.3362640000 	   -0.6443960000 	   -0.0003410000
N   	    1.4906360000 	    0.6201350000 	   -0.0004150000
C   	    0.1424180000 	    1.1816190000 	    0.0002690000
H   	   -0.2941060000 	   -2.0530590000 	   -0.0014250000
H   	    2.1537480000 	   -1.3604270000 	   -0.0006920000
H   	   -0.0181300000 	    1.8108040000 	   -0.8816330000
H   	   -0.0173970000 	    1.8094100000 	    0.8833440000
