12
tauto -302.537081829
O   	    2.0707790000 	    0.1039250000 	    0.0721820000
C   	    0.7341280000 	   -0.0206780000 	   -0.0008060000
N   	    0.1208830000 	   -1.1349730000 	   -0.0041060000
N   	   -1.2538300000 	   -0.8592000000 	   -0.2151370000
C   	   -1.4828780000 	    0.5412650000 	    0.1914990000
C   	   -0.1394040000 	    1.1922470000 	   -0.1484540000
H   	    2.4333020000 	   -0.7951150000 	    0.0992940000
H   	   -1.7838380000 	   -1.5141060000 	    0.3493470000
H   	   -1.6711620000 	    0.6295610000 	    1.2730770000
H   	   -2.3316110000 	    0.9657490000 	   -0.3505390000
H   	    0.1468640000 	    2.0105460000 	    0.5161770000
H   	   -0.1002380000 	    1.5541750000 	   -1.1835530000
