17
tauto -435.1129139
N   	   -3.2373380000 	   -0.0502780000 	   -0.0001370000
C   	   -1.8764240000 	   -0.0767430000 	   -0.0000290000
N   	   -1.1573700000 	   -1.1662010000 	   -0.0000150000
C   	    0.1560660000 	   -0.7102480000 	   -0.0000020000
C   	    1.3497970000 	   -1.4295810000 	    0.0000110000
C   	    2.5465790000 	   -0.7220860000 	    0.0000110000
C   	    2.5670900000 	    0.6790000000 	    0.0000060000
C   	    1.3859920000 	    1.4153940000 	   -0.0000060000
C   	    0.1991690000 	    0.6964470000 	   -0.0000080000
N   	   -1.1377960000 	    1.0833430000 	    0.0000150000
H   	   -1.4923930000 	    2.0251130000 	   -0.0000170000
H   	   -3.7207650000 	   -0.9314080000 	    0.0004770000
H   	   -3.7667080000 	    0.8021120000 	    0.0005510000
H   	    1.3302660000 	   -2.5156490000 	    0.0000200000
H   	    3.4883370000 	   -1.2651040000 	    0.0000230000
H   	    3.5201400000 	    1.2012020000 	    0.0000050000
H   	    1.3990450000 	    2.5025850000 	   -0.0000020000
