11
tauto -417.548375638
O   	    1.3964460000 	    1.2069940000 	   -0.0032010000
C   	    1.3791010000 	   -0.1242060000 	   -0.0068500000
C   	    0.0248940000 	   -0.8243790000 	    0.1561680000
C   	   -1.2226910000 	    0.0059810000 	    0.0134300000
O   	   -2.3180120000 	   -0.7475200000 	   -0.0904300000
O   	   -1.2708050000 	    1.2213710000 	    0.0106990000
O   	    2.3807830000 	   -0.7829890000 	   -0.1009880000
H   	    0.4793010000 	    1.5523310000 	    0.0432090000
H   	    0.0098810000 	   -1.2775350000 	    1.1550150000
H   	   -0.0091930000 	   -1.6615340000 	   -0.5453810000
H   	   -3.0751160000 	   -0.1404850000 	   -0.1579650000
