16
tauto -346.654725244
O   	    2.5427760000 	   -0.0000280000 	   -0.0002630000
C   	    1.3356110000 	    0.0000130000 	    0.0000150000
C   	    0.5266350000 	   -1.1977840000 	    0.4931670000
C   	   -0.7447070000 	   -1.4939430000 	   -0.2532000000
C   	   -1.8010610000 	   -0.6700460000 	   -0.2961570000
C   	   -1.8012380000 	    0.6698550000 	    0.2958210000
C   	   -0.7449510000 	    1.4938480000 	    0.2533230000
C   	    0.5266480000 	    1.1979980000 	   -0.4927290000
H   	    0.2723830000 	   -0.9415350000 	    1.5340370000
H   	    1.1977650000 	   -2.0590520000 	    0.5225750000
H   	   -0.8132060000 	   -2.4653880000 	   -0.7386350000
H   	   -2.7185980000 	   -1.0104610000 	   -0.7742520000
H   	   -2.7189860000 	    1.0101460000 	    0.7736050000
H   	   -0.8137660000 	    2.4652630000 	    0.7387790000
H   	    1.1977720000 	    2.0592960000 	   -0.5216190000
H   	    0.2728030000 	    0.9423050000 	   -1.5338340000
