8
tauto -245.996849719
C   	   -1.2930650000 	   -1.0243840000 	    0.0000080000
C   	   -0.4207860000 	    0.2042260000 	   -0.0002570000
C   	    1.0456920000 	   -0.0348970000 	   -0.0000400000
N   	    2.1860200000 	   -0.2295930000 	    0.0001150000
O   	   -0.8379330000 	    1.3345630000 	    0.0000880000
H   	   -0.7122290000 	   -1.9488760000 	   -0.0000340000
H   	   -1.9389130000 	   -0.9951360000 	   -0.8829540000
H   	   -1.9385810000 	   -0.9950110000 	    0.8832100000
