12
tauto -414.68161109
O   	    2.3381450000 	   -0.7843140000 	   -0.0000170000
C   	    1.1532520000 	   -0.1596960000 	    0.0000000000
N   	    0.0257160000 	   -0.9252130000 	   -0.0000500000
N   	    1.1491060000 	    1.1303330000 	    0.0000270000
C   	   -0.0909860000 	    1.7159010000 	    0.0000160000
C   	   -1.2760290000 	    1.0558120000 	   -0.0000330000
C   	   -1.2882590000 	   -0.3900340000 	   -0.0000090000
O   	   -2.2382550000 	   -1.1482710000 	    0.0000270000
H   	    2.2320730000 	   -1.7441600000 	    0.0000730000
H   	    0.0569840000 	   -1.9377910000 	    0.0001620000
H   	   -0.0714130000 	    2.8035080000 	    0.0000480000
H   	   -2.2283870000 	    1.5713840000 	   -0.0000420000
