10
tauto -355.466531412
O   	    2.2099770000 	    0.0685730000 	    0.0000320000
C   	    0.8783690000 	    0.0005370000 	   -0.0000450000
N   	    0.2867590000 	   -1.1722920000 	   -0.0000340000
C   	   -1.0546180000 	   -1.1134050000 	    0.0000220000
N   	   -1.8071140000 	   -0.0277310000 	    0.0000240000
N   	   -1.1864820000 	    1.1573860000 	    0.0000030000
C   	    0.1272090000 	    1.1943410000 	   -0.0000180000
H   	    2.5402550000 	   -0.8450810000 	    0.0000740000
H   	   -1.5865290000 	   -2.0614120000 	   -0.0000270000
H   	    0.6085500000 	    2.1675310000 	   -0.0000160000
