23
tauto -571.680994195
C   	    3.2130300000 	   -1.2105210000 	    1.0084680000
C   	    2.4743280000 	   -0.7411560000 	   -0.2377590000
N   	    1.0662580000 	   -1.0978190000 	   -0.2745690000
C   	    0.3430450000 	    0.0599450000 	   -0.2063830000
C   	   -1.1275120000 	    0.0241120000 	   -0.0901570000
C   	   -1.7948390000 	    1.1741610000 	    0.3373060000
C   	   -3.1769550000 	    1.1634670000 	    0.4711830000
C   	   -3.8989450000 	    0.0098400000 	    0.1726190000
C   	   -3.2382140000 	   -1.1338920000 	   -0.2670110000
C   	   -1.8544350000 	   -1.1276690000 	   -0.3992370000
N   	    1.0219810000 	    1.1707450000 	   -0.2618550000
C   	    2.3724180000 	    0.7985330000 	   -0.2865820000
O   	    3.3269870000 	    1.5365340000 	   -0.3219500000
H   	    3.3161830000 	   -2.3006380000 	    1.0318850000
H   	    2.6893600000 	   -0.8854500000 	    1.9139940000
H   	    4.2115370000 	   -0.7641830000 	    1.0119560000
H   	    2.9859400000 	   -1.0904830000 	   -1.1419630000
H   	    0.7227540000 	   -1.9464890000 	    0.1501130000
H   	   -1.2097320000 	    2.0624730000 	    0.5561400000
H   	   -3.6938820000 	    2.0579470000 	    0.8077850000
H   	   -4.9809190000 	    0.0042630000 	    0.2768330000
H   	   -3.8015600000 	   -2.0292580000 	   -0.5153550000
H   	   -1.3447790000 	   -2.0118500000 	   -0.7755050000
