18
tauto -568.288327476
O   	    2.4850920000 	   -1.6043350000 	   -0.0000860000
C   	    1.7762950000 	   -0.4498010000 	   -0.0000740000
C   	    2.3715840000 	    0.8012770000 	    0.0000730000
C   	    1.5971040000 	    1.9687860000 	    0.0001170000
C   	    0.2202110000 	    1.8905490000 	    0.0000190000
C   	   -0.3883910000 	    0.6296130000 	   -0.0000380000
C   	    0.3649290000 	   -0.5544930000 	   -0.0000140000
N   	   -0.2072580000 	   -1.8237240000 	    0.0000990000
C   	   -1.4863430000 	   -1.8701980000 	    0.0000970000
N   	   -2.3142990000 	   -0.7748400000 	   -0.0000060000
C   	   -1.8574400000 	    0.5404840000 	   -0.0000810000
O   	   -2.6340160000 	    1.4770810000 	   -0.0001060000
H   	    3.4261640000 	   -1.3874360000 	   -0.0006350000
H   	    3.4583010000 	    0.8739740000 	    0.0002130000
H   	    2.0931300000 	    2.9353300000 	    0.0002470000
H   	   -0.4109920000 	    2.7733390000 	    0.0000010000
H   	   -1.9927460000 	   -2.8338830000 	    0.0003670000
H   	   -3.3192610000 	   -0.8906440000 	    0.0000930000
