12
tauto -360.483535033
C   	   -2.5007260000 	   -0.3912140000 	   -0.0000440000
C   	   -1.0308220000 	   -0.1588120000 	   -0.0000640000
C   	    0.0464200000 	   -0.9840480000 	    0.0001570000
C   	    1.1444060000 	   -0.0732980000 	   -0.0000540000
O   	    2.4617590000 	   -0.3501600000 	    0.0001040000
N   	    0.7617580000 	    1.1751110000 	    0.0000150000
O   	   -0.6230310000 	    1.1169610000 	    0.0000040000
H   	   -2.7135830000 	   -1.4624340000 	   -0.0016030000
H   	   -2.9608630000 	    0.0607630000 	   -0.8840690000
H   	   -2.9604610000 	    0.0580850000 	    0.8855630000
H   	    0.0610370000 	   -2.0649160000 	    0.0003800000
H   	    2.5760700000 	   -1.3074480000 	   -0.0012150000
