17
tauto -305.975470237
N   	   -2.2978610000 	    0.0171680000 	   -0.3527790000
C   	   -0.9809660000 	   -0.1143500000 	    0.0500560000
N   	   -0.4037800000 	   -1.2520540000 	   -0.0027570000
C   	    1.0089520000 	   -1.2183190000 	    0.3483050000
C   	    1.7530620000 	   -0.1187750000 	   -0.4191070000
C   	    1.1083100000 	    1.2633970000 	   -0.1866260000
C   	   -0.2728110000 	    1.1436640000 	    0.4925240000
H   	   -2.7765420000 	   -0.8697590000 	   -0.4407960000
H   	   -2.8412990000 	    0.7324170000 	    0.1077440000
H   	    1.4477060000 	   -2.1961000000 	    0.1243240000
H   	    1.1339540000 	   -1.0610470000 	    1.4330550000
H   	    1.7075240000 	   -0.3739090000 	   -1.4838060000
H   	    2.8120180000 	   -0.1092580000 	   -0.1372290000
H   	    0.9911440000 	    1.7848930000 	   -1.1421260000
H   	    1.7513830000 	    1.8946790000 	    0.4362260000
H   	   -0.8797920000 	    2.0343140000 	    0.3003830000
H   	   -0.1338890000 	    1.0742750000 	    1.5800690000
