15
tauto -471.014624141
O   	    1.4322230000 	    2.0868320000 	   -0.0005210000
C   	    1.1776280000 	    0.8959760000 	    0.0001620000
N   	   -0.1853280000 	    0.4731550000 	   -0.0000490000
C   	   -1.3196280000 	    1.2822120000 	    0.0003640000
C   	   -2.3854490000 	    0.4575480000 	   -0.0000760000
N   	   -1.9127810000 	   -0.8495060000 	   -0.0003900000
C   	   -0.5521340000 	   -0.8431710000 	   -0.0000330000
N   	    0.2503550000 	   -1.8784200000 	    0.0002660000
C   	    1.5614450000 	   -1.5223480000 	    0.0001690000
C   	    2.0550570000 	   -0.2431670000 	   -0.0000960000
H   	   -1.2271000000 	    2.3564550000 	    0.0003000000
H   	   -3.4418000000 	    0.6781390000 	   -0.0005690000
H   	   -2.4549680000 	   -1.6982530000 	    0.0027540000
H   	    2.2577650000 	   -2.3589390000 	    0.0002590000
H   	    3.1210850000 	   -0.0509700000 	   -0.0003180000
