12
tauto -360.488514068
C   	    2.5344410000 	    0.3334010000 	    0.0000900000
C   	    1.0643320000 	    0.0653550000 	   -0.0000150000
N   	    0.6333610000 	   -1.1716090000 	   -0.0001460000
O   	   -0.7637910000 	   -1.0730840000 	    0.0000680000
C   	   -1.0990250000 	    0.2164180000 	   -0.0000150000
O   	   -2.3998800000 	    0.5059220000 	    0.0000130000
C   	    0.0000440000 	    1.0122410000 	   -0.0000970000
H   	    3.0839340000 	   -0.6107540000 	   -0.0003660000
H   	    2.8222620000 	    0.9094660000 	    0.8852640000
H   	    2.8222280000 	    0.9103210000 	   -0.8845360000
H   	   -2.8973730000 	   -0.3250080000 	    0.0003530000
H   	    0.0460320000 	    2.0900410000 	   -0.0001170000
