16
tauto -400.812925257
O   	    3.4239910000 	    0.0851010000 	   -0.6174200000
C   	    2.3648360000 	   -0.3712850000 	   -0.2637130000
C   	    1.4551560000 	    0.3016140000 	    0.7480330000
C   	    0.0005410000 	    0.1614080000 	    0.3726830000
N   	   -0.4681620000 	   -1.0908580000 	    0.3254240000
C   	   -1.7440740000 	   -1.2660180000 	   -0.0192730000
C   	   -2.6115280000 	   -0.2234420000 	   -0.3268080000
C   	   -2.1166470000 	    1.0744120000 	   -0.2810190000
C   	   -0.7869700000 	    1.2718560000 	    0.0698640000
H   	    1.9852690000 	   -1.3372510000 	   -0.6547070000
H   	    1.7634190000 	    1.3449260000 	    0.8578740000
H   	    1.6186200000 	   -0.2093260000 	    1.7066490000
H   	   -2.0906500000 	   -2.2980240000 	   -0.0475180000
H   	   -3.6436270000 	   -0.4278950000 	   -0.5946750000
H   	   -2.7556660000 	    1.9214370000 	   -0.5174180000
H   	   -0.3600400000 	    2.2700580000 	    0.1125880000
