21
tauto -624.614042013
O   	   -0.8946670000 	    2.9054050000 	   -0.0000310000
C   	   -0.2993760000 	    1.8418900000 	   -0.0000190000
N   	    1.0826980000 	    1.7657370000 	    0.0000170000
C   	    1.6077340000 	    0.5778550000 	   -0.0000050000
N   	    2.9433400000 	    0.2971510000 	    0.0000490000
C   	    3.1460650000 	   -1.0759840000 	    0.0000230000
C   	    1.9372700000 	   -1.6672660000 	   -0.0000100000
N   	    0.9812080000 	   -0.6465700000 	   -0.0000720000
C   	   -0.4174170000 	   -0.6890050000 	   -0.0000330000
C   	   -1.0674460000 	    0.5486860000 	   -0.0000110000
C   	   -2.4632000000 	    0.5720550000 	    0.0000260000
C   	   -3.1894760000 	   -0.6072310000 	    0.0000410000
C   	   -2.5203790000 	   -1.8345220000 	    0.0000190000
C   	   -1.1352940000 	   -1.8862900000 	   -0.0000190000
H   	    3.6403830000 	    1.0239520000 	    0.0001480000
H   	    4.1336570000 	   -1.5102760000 	    0.0000280000
H   	    1.6684530000 	   -2.7114780000 	   -0.0000700000
H   	   -2.9434740000 	    1.5461530000 	    0.0000410000
H   	   -4.2754860000 	   -0.5812760000 	    0.0000710000
H   	   -3.0864830000 	   -2.7623350000 	    0.0000330000
H   	   -0.6213360000 	   -2.8433340000 	   -0.0000320000
