23
tauto -533.801952397
C   	    3.5896280000 	    0.5685850000 	    1.1950580000
C   	    3.3989180000 	   -0.0313750000 	   -0.1843170000
O   	    2.1936590000 	   -0.8198970000 	   -0.2458920000
C   	    1.0551080000 	   -0.1516770000 	   -0.4508720000
C   	   -0.1193940000 	   -1.1017960000 	   -0.5525290000
C   	   -1.4313670000 	   -0.4981950000 	   -0.1427830000
N   	   -2.2278990000 	   -1.0733240000 	    0.6731750000
C   	   -3.4199100000 	   -0.2177940000 	    0.7313250000
C   	   -3.0091570000 	    1.1172460000 	    0.0704600000
N   	   -1.8598280000 	    0.6862510000 	   -0.7271610000
O   	    0.9930830000 	    1.0533680000 	   -0.5781510000
H   	    4.5508290000 	    1.0908060000 	    1.2434650000
H   	    3.5833030000 	   -0.2138510000 	    1.9598090000
H   	    2.7955990000 	    1.2873980000 	    1.4138050000
H   	    4.1939750000 	   -0.7389190000 	   -0.4294670000
H   	    3.3520210000 	    0.7441310000 	   -0.9530990000
H   	    0.0647540000 	   -1.9953600000 	    0.0451950000
H   	   -0.1816250000 	   -1.4120000000 	   -1.6044190000
H   	   -3.7603250000 	   -0.0966850000 	    1.7640310000
H   	   -4.2296290000 	   -0.7039550000 	    0.1712730000
H   	   -2.7136120000 	    1.8637860000 	    0.8216600000
H   	   -3.7954720000 	    1.5473460000 	   -0.5563380000
H   	   -1.1226210000 	    1.3590800000 	   -0.9037150000
