22
tauto -591.54480688
C   	   -3.1766120000 	    1.4181410000 	    0.7151360000
C   	   -2.4034840000 	    0.6828200000 	   -0.3600030000
O   	   -1.0064370000 	    1.0210000000 	   -0.3232740000
C   	   -0.3496920000 	   -0.1382910000 	   -0.1286760000
C   	    1.1141730000 	   -0.0530200000 	   -0.0501210000
C   	    1.8473620000 	   -1.2249500000 	    0.1527270000
C   	    3.2319030000 	   -1.1641080000 	    0.2330900000
C   	    3.8834510000 	    0.0617320000 	    0.1114380000
C   	    3.1521810000 	    1.2295310000 	   -0.0913720000
C   	    1.7662140000 	    1.1756840000 	   -0.1727210000
N   	   -1.0373040000 	   -1.2258650000 	   -0.0238200000
C   	   -2.3799450000 	   -0.8350790000 	   -0.1494740000
O   	   -3.3545350000 	   -1.5405060000 	   -0.0861710000
H   	   -3.1723880000 	    2.4968370000 	    0.5376860000
H   	   -2.7430430000 	    1.2189270000 	    1.6999470000
H   	   -4.2086550000 	    1.0556600000 	    0.7106610000
H   	   -2.7756180000 	    0.9212070000 	   -1.3617250000
H   	    1.3145800000 	   -2.1668380000 	    0.2449610000
H   	    3.8047570000 	   -2.0736180000 	    0.3911630000
H   	    4.9676730000 	    0.1071490000 	    0.1758680000
H   	    3.6630200000 	    2.1836880000 	   -0.1863320000
H   	    1.1852750000 	    2.0793410000 	   -0.3300680000
