19
tauto -552.23314066
O   	    3.7906070000 	   -1.0226070000 	   -0.0003190000
C   	    2.7544560000 	   -0.4109880000 	   -0.0000830000
N   	    1.4530490000 	   -0.9413160000 	   -0.0003730000
C   	    0.6590260000 	    0.0749810000 	   -0.0000310000
C   	   -0.8072910000 	    0.0072440000 	   -0.0000190000
C   	   -1.5777920000 	    1.1721560000 	   -0.0003110000
C   	   -2.9639780000 	    1.0788940000 	   -0.0003250000
C   	   -3.5776370000 	   -0.1712850000 	   -0.0000140000
C   	   -2.8078630000 	   -1.3330590000 	    0.0002890000
C   	   -1.4225010000 	   -1.2472180000 	    0.0002780000
O   	    1.1995050000 	    1.3111140000 	    0.0004470000
C   	    2.6138400000 	    1.1137850000 	    0.0003450000
H   	   -1.0874920000 	    2.1408710000 	   -0.0005330000
H   	   -3.5669110000 	    1.9827740000 	   -0.0005760000
H   	   -4.6624530000 	   -0.2413090000 	   -0.0000130000
H   	   -3.2900830000 	   -2.3065570000 	    0.0005420000
H   	   -0.7990940000 	   -2.1366330000 	    0.0004760000
H   	    3.0461460000 	    1.5672180000 	    0.8956210000
H   	    3.0460820000 	    1.5677230000 	   -0.8947090000
