27
tauto -594.912656458
C   	   -2.8324620000 	   -2.4083530000 	    0.1143750000
C   	   -1.9580710000 	   -1.4329290000 	    0.8906980000
N   	   -1.5664530000 	   -0.2744960000 	    0.1018370000
C   	   -0.4583850000 	    0.5550900000 	    0.5501260000
C   	    0.9150940000 	    0.0097050000 	    0.2341010000
C   	    2.0311010000 	    0.6297640000 	    0.8001670000
C   	    3.3105190000 	    0.1719210000 	    0.5098340000
C   	    3.4899320000 	   -0.9115850000 	   -0.3471180000
C   	    2.3819400000 	   -1.5269740000 	   -0.9188070000
C   	    1.0993870000 	   -1.0655220000 	   -0.6329750000
C   	   -2.4505950000 	    0.5207560000 	   -0.5742100000
C   	   -2.0244080000 	    1.7911950000 	   -0.7768140000
C   	   -0.7335290000 	    1.9308740000 	   -0.1198380000
O   	    0.0201410000 	    2.8797730000 	   -0.0487410000
H   	   -3.0151160000 	   -3.3024490000 	    0.7178610000
H   	   -2.3406270000 	   -2.7129780000 	   -0.8151400000
H   	   -3.8085440000 	   -1.9800430000 	   -0.1360860000
H   	   -1.0297050000 	   -1.9337230000 	    1.1860690000
H   	   -2.4646740000 	   -1.1201770000 	    1.8179940000
H   	   -0.5467030000 	    0.7215090000 	    1.6355650000
H   	    1.8910570000 	    1.4879040000 	    1.4523520000
H   	    4.1721900000 	    0.6638540000 	    0.9538860000
H   	    4.4910480000 	   -1.2719800000 	   -0.5697310000
H   	    2.5131760000 	   -2.3678090000 	   -1.5955240000
H   	    0.2327150000 	   -1.5358560000 	   -1.0913490000
H   	   -3.3893050000 	    0.0899910000 	   -0.9092580000
H   	   -2.5246040000 	    2.5613940000 	   -1.3467930000
