17
tauto -476.030913638
O   	   -3.0401510000 	   -0.7947590000 	   -0.0001850000
C   	   -1.8133590000 	   -0.2245850000 	    0.0003720000
C   	   -1.6463580000 	    1.1638800000 	    0.0003390000
C   	   -0.3468240000 	    1.6747310000 	    0.0001840000
C   	    0.7093660000 	    0.7871340000 	   -0.0000570000
C   	    2.2059260000 	    0.9345710000 	   -0.0008310000
C   	    2.6577750000 	   -0.5493970000 	    0.0011290000
O   	    1.4772230000 	   -1.3748270000 	   -0.0005810000
C   	    0.3924080000 	   -0.5734460000 	   -0.0003280000
N   	   -0.8120670000 	   -1.1022270000 	   -0.0001210000
H   	   -3.7073150000 	   -0.0968340000 	    0.0001310000
H   	   -2.5066250000 	    1.8277010000 	    0.0003500000
H   	   -0.1832210000 	    2.7501010000 	    0.0001860000
H   	    2.5761750000 	    1.4679700000 	    0.8814150000
H   	    2.5751860000 	    1.4654220000 	   -0.8850490000
H   	    3.2382510000 	   -0.8089320000 	    0.8908610000
H   	    3.2418410000 	   -0.8104830000 	   -0.8857570000
