26
tauto -610.95580701
C   	    3.6873030000 	    1.0452920000 	    0.2253370000
C   	    2.3642700000 	    0.3645360000 	    0.0581180000
C   	    1.0960920000 	    0.9022700000 	    0.1209280000
C   	    0.7063540000 	    2.3163090000 	    0.4118090000
N   	    0.2145730000 	   -0.1222740000 	   -0.0874890000
C   	   -1.2019660000 	   -0.1102770000 	   -0.0542100000
C   	   -1.8719790000 	   -1.1802670000 	    0.5393910000
C   	   -3.2600940000 	   -1.1875070000 	    0.5752330000
C   	   -3.9868950000 	   -0.1299400000 	    0.0329150000
C   	   -3.3135850000 	    0.9294090000 	   -0.5652690000
C   	   -1.9230380000 	    0.9381400000 	   -0.6228790000
N   	    0.8531030000 	   -1.3118480000 	   -0.2589010000
C   	    2.1289110000 	   -1.0075580000 	   -0.1777010000
O   	    3.0954820000 	   -1.9405420000 	   -0.3185820000
H   	    3.7552520000 	    1.9583210000 	   -0.3764550000
H   	    4.4925080000 	    0.3763130000 	   -0.0914430000
H   	    3.8797950000 	    1.3193530000 	    1.2699150000
H   	    1.5184260000 	    2.8060220000 	    0.9570100000
H   	   -0.1987660000 	    2.3699890000 	    1.0242370000
H   	    0.5285880000 	    2.8940260000 	   -0.5028760000
H   	   -1.2905300000 	   -1.9961060000 	    0.9555250000
H   	   -3.7774450000 	   -2.0240290000 	    1.0377860000
H   	   -5.0729080000 	   -0.1367990000 	    0.0693940000
H   	   -3.8704730000 	    1.7505170000 	   -1.0090470000
H   	   -1.4029030000 	    1.7444280000 	   -1.1302400000
H   	    2.6486180000 	   -2.7812970000 	   -0.4924670000
