19
tauto -423.111553567
C   	   -1.9438830000 	    0.5632250000 	    1.1173680000
C   	   -1.5925770000 	   -0.2503120000 	   -0.1059150000
C   	   -0.1197750000 	   -0.3683490000 	   -0.4768100000
C   	    0.6590480000 	   -1.4299960000 	    0.3187330000
C   	    2.1314120000 	   -1.0274760000 	    0.1194700000
C   	    2.1136540000 	    0.5032740000 	    0.1767480000
C   	    0.7178230000 	    0.9004980000 	   -0.2935620000
O   	    0.3288410000 	    2.0296330000 	   -0.4757590000
O   	   -2.4343190000 	   -0.8130010000 	   -0.7711490000
H   	   -1.2828890000 	    0.3290760000 	    1.9600890000
H   	   -2.9831350000 	    0.3771400000 	    1.3926770000
H   	   -1.8065900000 	    1.6244340000 	    0.8827530000
H   	   -0.0851350000 	   -0.6242660000 	   -1.5447280000
H   	    0.4401080000 	   -2.4468190000 	   -0.0167710000
H   	    0.3969510000 	   -1.3683570000 	    1.3839960000
H   	    2.4731690000 	   -1.3646390000 	   -0.8664580000
H   	    2.7920750000 	   -1.4765090000 	    0.8662890000
H   	    2.8799310000 	    1.0009080000 	   -0.4243230000
H   	    2.2251240000 	    0.8707940000 	    1.2055450000
