20
tauto -532.331720742
O   	    3.6935060000 	   -1.1262590000 	   -0.0024160000
C   	    2.6355590000 	   -0.2853230000 	   -0.0005870000
C   	    2.6307290000 	    1.1315870000 	    0.0020820000
C   	    1.2959690000 	    1.4490610000 	    0.0032750000
N   	    1.4235340000 	   -0.7932310000 	   -0.0015180000
N   	    0.6014220000 	    0.2848390000 	    0.0003990000
C   	   -0.8046010000 	    0.0950530000 	   -0.0000230000
C   	   -1.6713780000 	    1.1874030000 	   -0.0023650000
C   	   -3.0454440000 	    0.9759970000 	   -0.0023680000
C   	   -3.5632840000 	   -0.3146830000 	   -0.0002560000
C   	   -2.6896550000 	   -1.3982890000 	    0.0018490000
C   	   -1.3143090000 	   -1.2027120000 	    0.0020200000
H   	    4.5002090000 	   -0.5985300000 	   -0.0018350000
H   	    3.4711280000 	    1.8120500000 	    0.0033300000
H   	    0.8081600000 	    2.4125650000 	    0.0058160000
H   	   -1.2907710000 	    2.2040850000 	   -0.0044940000
H   	   -3.7137430000 	    1.8331550000 	   -0.0041810000
H   	   -4.6379090000 	   -0.4744300000 	   -0.0003370000
H   	   -3.0801800000 	   -2.4126300000 	    0.0034590000
H   	   -0.6211540000 	   -2.0360140000 	    0.0036360000
