10
tauto -359.28361046
O   	    1.9719430000 	   -0.3680990000 	    0.0000010000
C   	    0.6530660000 	   -0.4144470000 	    0.0000130000
N   	   -0.0689970000 	   -1.4673780000 	   -0.0000020000
C   	   -1.4200670000 	   -0.9749500000 	   -0.0000110000
C   	   -1.5560930000 	    0.3599860000 	    0.0000110000
C   	   -0.1791100000 	    0.8921240000 	   -0.0000160000
O   	    0.2625030000 	    2.0115610000 	   -0.0000010000
H   	    2.2943580000 	   -1.2853320000 	    0.0000020000
H   	   -2.2120410000 	   -1.7161260000 	    0.0000000000
H   	   -2.4616740000 	    0.9491280000 	    0.0000290000
