23
tauto -438.728968079
C   	    2.3925780000 	    0.0142600000 	   -0.9977900000
C   	    1.2318480000 	    0.0006960000 	   -0.0068830000
C   	    1.7443410000 	   -0.1198520000 	    1.4329670000
N   	    0.4920710000 	    1.2444110000 	   -0.1342380000
C   	   -0.7823070000 	    1.1987110000 	   -0.0153770000
C   	   -1.5693130000 	    2.4756410000 	   -0.0802390000
N   	   -1.5831660000 	    0.0580450000 	    0.1575560000
C   	   -0.9695270000 	   -1.0631070000 	   -0.0557440000
C   	   -1.7373450000 	   -2.3536510000 	   -0.0493570000
N   	    0.3535620000 	   -1.1359470000 	   -0.3290630000
H   	    3.0495720000 	    0.8597570000 	   -0.7768710000
H   	    2.0108720000 	    0.1259890000 	   -2.0164970000
H   	    2.9795070000 	   -0.9108380000 	   -0.9338970000
H   	    2.3622150000 	    0.7484970000 	    1.6813100000
H   	    2.3450660000 	   -1.0289470000 	    1.5603750000
H   	    0.9008150000 	   -0.1542860000 	    2.1306400000
H   	   -0.9033080000 	    3.3254170000 	   -0.2384760000
H   	   -2.1273940000 	    2.6081680000 	    0.8528450000
H   	   -2.3061390000 	    2.4203590000 	   -0.8883130000
H   	   -2.7939610000 	   -2.1383750000 	    0.1105480000
H   	   -1.3773190000 	   -3.0163850000 	    0.7455020000
H   	   -1.6156490000 	   -2.8761690000 	   -1.0049200000
H   	    0.7768010000 	   -2.0449430000 	   -0.4474980000
