14
tauto -361.685960963
O   	   -2.2918930000 	    0.0920880000 	    0.0830700000
C   	   -0.9472680000 	   -0.0162570000 	   -0.0015770000
N   	   -0.4560510000 	   -1.1888170000 	   -0.1098080000
O   	    0.9299460000 	   -1.3087840000 	   -0.1956880000
C   	    1.6604170000 	   -0.2295600000 	    0.3675520000
C   	    1.2485890000 	    1.0913450000 	   -0.2601350000
C   	   -0.2349040000 	    1.3013110000 	    0.0371290000
H   	   -2.6419260000 	   -0.8132030000 	    0.0453150000
H   	    2.7070890000 	   -0.4759380000 	    0.1737990000
H   	    1.4948420000 	   -0.2048120000 	    1.4564570000
H   	    1.4190940000 	    1.0343010000 	   -1.3406750000
H   	    1.8509620000 	    1.9170400000 	    0.1319930000
H   	   -0.7147390000 	    1.9716420000 	   -0.6835080000
H   	   -0.3883910000 	    1.7452220000 	    1.0284150000
