20
tauto -457.30429127
N   	   -3.2865990000 	    0.8723980000 	   -0.7656580000
O   	   -2.2466150000 	    0.4845230000 	    0.1198820000
C   	   -1.9275400000 	   -0.8759520000 	   -0.1224060000
C   	   -0.7593220000 	   -1.2372210000 	    0.7861630000
C   	    0.5161080000 	   -0.5270820000 	    0.4011660000
N   	    1.3790360000 	   -1.2220520000 	   -0.3475800000
C   	    2.5075320000 	   -0.6169900000 	   -0.7246570000
C   	    2.8366960000 	    0.6891290000 	   -0.3849610000
C   	    1.9331340000 	    1.4096220000 	    0.3897950000
C   	    0.7550670000 	    0.7945470000 	    0.7878820000
H   	   -2.8921830000 	    1.6619630000 	   -1.2761810000
H   	   -3.9942630000 	    1.2695380000 	   -0.1490540000
H   	   -1.6562130000 	   -1.0197760000 	   -1.1769750000
H   	   -2.7985770000 	   -1.5096870000 	    0.0950170000
H   	   -0.5842690000 	   -2.3148140000 	    0.7148030000
H   	   -1.0348150000 	   -1.0012170000 	    1.8209470000
H   	    3.1852010000 	   -1.2157020000 	   -1.3321200000
H   	    3.7729360000 	    1.1261930000 	   -0.7194620000
H   	    2.1441370000 	    2.4366800000 	    0.6779610000
H   	    0.0138600000 	    1.3218940000 	    1.3807820000
