12
tauto -302.572003455
N   	   -2.0498180000 	   -0.0019980000 	   -0.0695030000
C   	   -0.6871460000 	    0.1053150000 	   -0.0068920000
N   	   -0.0087850000 	    1.1809360000 	    0.0479550000
C   	    1.3896910000 	    0.7685810000 	   -0.0390610000
C   	    1.3529500000 	   -0.7743570000 	    0.0587150000
O   	   -0.0440850000 	   -1.0906880000 	   -0.0622590000
H   	   -2.5350100000 	    0.8422400000 	    0.1945780000
H   	   -2.4335820000 	   -0.8524850000 	    0.3145140000
H   	    1.9768760000 	    1.2161480000 	    0.7699570000
H   	    1.8259190000 	    1.1079700000 	   -0.9869800000
H   	    1.7069190000 	   -1.1513840000 	    1.0242680000
H   	    1.8888080000 	   -1.2867810000 	   -0.7440080000
