16
tauto -379.968991221
C   	   -2.8064890000 	   -0.2617300000 	    0.0002040000
C   	   -1.3274530000 	   -0.0714460000 	   -0.0000680000
C   	   -0.6167400000 	    1.2515720000 	   -0.0000120000
N   	   -0.5131830000 	   -1.0634680000 	   -0.0002470000
N   	    0.7777770000 	   -0.5582010000 	   -0.0003480000
C   	    1.9049500000 	   -1.4530820000 	    0.0002070000
C   	    0.8421970000 	    0.8120240000 	   -0.0000580000
O   	    1.8519600000 	    1.4867120000 	    0.0000900000
H   	   -3.2604840000 	    0.2028930000 	    0.8831730000
H   	   -3.0426760000 	   -1.3283670000 	   -0.0000920000
H   	   -3.2606640000 	    0.2033430000 	   -0.8824430000
H   	   -0.8385050000 	    1.8609970000 	    0.8829390000
H   	   -0.8385720000 	    1.8608850000 	   -0.8830330000
H   	    1.8959500000 	   -2.0862990000 	    0.8927530000
H   	    2.8026130000 	   -0.8314660000 	   -0.0003970000
H   	    1.8957080000 	   -2.0880230000 	   -0.8910910000
