15
tauto -304.74929474
N   	   -2.3859050000 	   -0.5627510000 	   -0.0626680000
C   	   -1.0625180000 	   -0.2122680000 	   -0.0029450000
C   	   -0.6882520000 	    1.2512090000 	   -0.0048890000
C   	    0.8500280000 	    1.2426900000 	    0.0029290000
C   	    0.0189450000 	   -1.0193810000 	    0.0004130000
C   	    1.2497390000 	   -0.2293160000 	    0.0019070000
N   	    2.4739100000 	   -0.5877620000 	    0.0051370000
H   	   -3.0571940000 	    0.1133250000 	    0.2688200000
H   	   -2.6232150000 	   -1.5188030000 	    0.1562790000
H   	   -1.1130390000 	    1.7560980000 	    0.8726150000
H   	   -1.1075360000 	    1.7450180000 	   -0.8898450000
H   	    1.2680890000 	    1.7361220000 	    0.8848840000
H   	    1.2748060000 	    1.7386260000 	   -0.8743120000
H   	   -0.0001590000 	   -2.1055070000 	   -0.0026340000
H   	    2.5345570000 	   -1.6088900000 	    0.0024170000
