19
tauto -572.34284134
C   	    2.9765720000 	    0.3065530000 	   -0.3827460000
C   	    1.7539310000 	   -0.5553350000 	   -0.2111960000
C   	    0.6855340000 	   -0.0603020000 	    0.7922450000
C   	   -0.3114030000 	   -1.1536390000 	    1.1595360000
C   	   -1.3363380000 	   -1.3297750000 	    0.0454290000
C   	   -2.0377900000 	   -0.0400090000 	   -0.2740100000
O   	   -1.2776030000 	    1.1230300000 	   -0.1794060000
O   	   -3.1747300000 	    0.0781310000 	   -0.6168860000
C   	    0.0233370000 	    1.1943190000 	    0.2344080000
O   	    0.5884970000 	    2.2482850000 	    0.1449710000
O   	    1.6056160000 	   -1.6105670000 	   -0.7858630000
H   	    3.5828930000 	    0.2468690000 	    0.5295000000
H   	    2.6997220000 	    1.3560180000 	   -0.5157050000
H   	    3.5638720000 	   -0.0559220000 	   -1.2277400000
H   	    1.2294790000 	    0.2952070000 	    1.6755260000
H   	   -0.8157820000 	   -0.8910150000 	    2.0966470000
H   	    0.2211660000 	   -2.0941870000 	    1.3208560000
H   	   -2.1087980000 	   -2.0588580000 	    0.2979430000
H   	   -0.8298470000 	   -1.6800070000 	   -0.8615500000
