20
tauto -532.371660432
O   	   -3.7598350000 	   -1.0819970000 	   -0.1792970000
C   	   -2.7479870000 	   -0.4360150000 	   -0.0706420000
N   	   -1.4326710000 	   -0.9067390000 	   -0.2046900000
C   	   -0.6555570000 	    0.1220110000 	   -0.0284190000
C   	    0.8167440000 	    0.0287840000 	   -0.0256490000
C   	    1.6174940000 	    1.1592060000 	   -0.2040480000
C   	    3.0023050000 	    1.0413810000 	   -0.1823130000
C   	    3.5902380000 	   -0.2048090000 	    0.0160130000
C   	    2.7934910000 	   -1.3355960000 	    0.1834220000
C   	    1.4097590000 	   -1.2220480000 	    0.1595450000
N   	   -1.2761460000 	    1.3302970000 	    0.1451950000
C   	   -2.6979470000 	    1.0741780000 	    0.2373140000
H   	    1.1612350000 	    2.1283290000 	   -0.3929770000
H   	    3.6226330000 	    1.9213520000 	   -0.3289050000
H   	    4.6731990000 	   -0.2965500000 	    0.0334280000
H   	    3.2535120000 	   -2.3087300000 	    0.3314570000
H   	    0.7662990000 	   -2.0885180000 	    0.2801730000
H   	   -0.8305310000 	    2.0624580000 	    0.6764970000
H   	   -3.2790710000 	    1.6381850000 	   -0.4978460000
H   	   -3.0981150000 	    1.2720040000 	    1.2376760000
