9
tauto -317.377309893
N   	    1.9593620000 	    0.0330610000 	   -0.0613650000
C   	    0.6065230000 	    0.0906400000 	   -0.0074360000
N   	   -0.1498100000 	    1.1533710000 	    0.0015280000
C   	   -1.3908390000 	    0.5784530000 	    0.0058860000
N   	   -1.4270240000 	   -0.7208520000 	    0.0052700000
O   	   -0.0622750000 	   -1.0611750000 	   -0.0042710000
H   	    2.4382390000 	    0.8875720000 	    0.1768500000
H   	    2.3965630000 	   -0.8251850000 	    0.2364670000
H   	   -2.3083990000 	    1.1533870000 	    0.0121150000
