11
tauto -380.360509875
O   	    1.4795440000 	   -1.4770030000 	   -0.0333830000
C   	    0.5063170000 	   -0.7732220000 	    0.0036420000
C   	   -0.9540110000 	   -1.1624520000 	    0.1101720000
O   	   -1.6887390000 	   -0.0000890000 	   -0.2452240000
C   	   -0.9541540000 	    1.1623260000 	    0.1102570000
C   	    0.5062070000 	    0.7732800000 	    0.0036480000
O   	    1.4793410000 	    1.4771850000 	   -0.0334640000
H   	   -1.1761650000 	   -1.4856110000 	    1.1404930000
H   	   -1.2172870000 	   -1.9713020000 	   -0.5755040000
H   	   -1.1763290000 	    1.4853800000 	    1.1406090000
H   	   -1.2175390000 	    1.9712110000 	   -0.5753370000
