13
tauto -344.488598496
O   	   -1.5159810000 	    1.4523830000 	   -0.0631400000
C   	   -0.5240450000 	    0.7768000000 	    0.0242750000
C   	    0.9177110000 	    1.2258820000 	    0.1572390000
C   	    1.7508620000 	   -0.0000820000 	   -0.2628790000
C   	    0.9174330000 	   -1.2262460000 	    0.1561330000
C   	   -0.5242640000 	   -0.7766630000 	    0.0242560000
O   	   -1.5164980000 	   -1.4519530000 	   -0.0621020000
H   	    1.0925520000 	    1.4722980000 	    1.2138840000
H   	    1.1090600000 	    2.1303190000 	   -0.4253660000
H   	    2.7473540000 	   -0.0004040000 	    0.1852780000
H   	    1.8837700000 	    0.0003750000 	   -1.3506780000
H   	    1.0926360000 	   -1.4741460000 	    1.2123630000
H   	    1.1082870000 	   -2.1300120000 	   -0.4276930000
