15
tauto -474.783452509
O   	   -2.4205160000 	    1.4087590000 	    0.0004660000
C   	   -1.6156690000 	    0.4982570000 	   -0.0002660000
N   	   -1.9217050000 	   -0.8446050000 	   -0.0006330000
O   	   -0.8192620000 	   -1.6938390000 	    0.0001240000
C   	    0.2498530000 	   -0.8461670000 	   -0.0000340000
C   	   -0.1405840000 	    0.4824880000 	   -0.0002320000
C   	    0.8101850000 	    1.4991170000 	   -0.0001310000
C   	    2.1482740000 	    1.1349220000 	    0.0000020000
C   	    2.5205720000 	   -0.2198780000 	    0.0001280000
C   	    1.5816950000 	   -1.2427080000 	    0.0001220000
H   	   -2.8120130000 	   -1.3138330000 	    0.0018670000
H   	    0.4964220000 	    2.5390820000 	   -0.0002330000
H   	    2.9197250000 	    1.8991710000 	    0.0000060000
H   	    3.5765390000 	   -0.4773690000 	    0.0002660000
H   	    1.8635340000 	   -2.2903600000 	    0.0002770000
