20
tauto -548.642061677
C   	   -2.9379590000 	   -0.3367090000 	   -0.0174630000
C   	   -1.5075710000 	   -0.7451420000 	   -0.2388120000
C   	   -0.4820220000 	   -0.0338810000 	    0.6410580000
N   	    0.8563080000 	   -0.5436210000 	    0.4940220000
C   	    1.2428120000 	   -1.9286770000 	    0.6432910000
C   	    1.5881530000 	    0.4266370000 	   -0.1067570000
N   	    2.8780380000 	    0.2125340000 	   -0.4494950000
N   	    1.0012120000 	    1.5929920000 	   -0.2893870000
C   	   -0.2891030000 	    1.4432050000 	    0.1557110000
O   	   -1.1793320000 	    2.2649670000 	    0.1732440000
O   	   -1.1545220000 	   -1.5654510000 	   -1.0589510000
H   	   -3.0042320000 	    0.7567090000 	    0.0061740000
H   	   -3.2796800000 	   -0.7075450000 	    0.9566220000
H   	   -3.5679390000 	   -0.7539000000 	   -0.8046840000
H   	   -0.8167510000 	   -0.0243030000 	    1.6862980000
H   	    0.5737310000 	   -2.4021550000 	    1.3653230000
H   	    2.2591320000 	   -1.9891730000 	    1.0480290000
H   	    1.1697700000 	   -2.4805720000 	   -0.2999180000
H   	    3.2064740000 	   -0.7251390000 	   -0.6156750000
H   	    3.2955720000 	    0.9440060000 	   -1.0046610000
