10
tauto -355.465234886
O   	   -2.1785530000 	    0.1250580000 	    0.0000730000
C   	   -0.8482780000 	    0.0656210000 	   -0.0001300000
N   	   -0.3069400000 	   -1.1545530000 	    0.0000030000
N   	    1.0091350000 	   -1.2542600000 	    0.0000060000
C   	    1.7281320000 	   -0.1399720000 	    0.0000210000
C   	    1.1100370000 	    1.1137850000 	    0.0000440000
N   	   -0.2047960000 	    1.2347430000 	   -0.0000450000
H   	   -2.4925740000 	   -0.7936500000 	    0.0000150000
H   	    2.8067040000 	   -0.2581070000 	   -0.0000360000
H   	    1.6931550000 	    2.0331860000 	    0.0000810000
