19
tauto -548.434232494
N   	    3.2136360000 	   -1.0639710000 	   -0.0658420000
C   	    1.9795120000 	   -0.4598530000 	   -0.0008880000
N   	    0.9138630000 	   -1.3200640000 	    0.0034270000
C   	   -0.3880030000 	   -0.8230960000 	    0.0014200000
C   	   -0.5466930000 	    0.5625440000 	    0.0090090000
C   	   -1.8342760000 	    1.1011000000 	    0.0141340000
C   	   -2.9427530000 	    0.2706210000 	    0.0083600000
C   	   -2.7673060000 	   -1.1169320000 	   -0.0039230000
C   	   -1.4974870000 	   -1.6720600000 	   -0.0057210000
N   	    1.9046390000 	    0.8322210000 	    0.0181880000
C   	    0.6551320000 	    1.4482990000 	   -0.0029450000
O   	    0.5409020000 	    2.6591200000 	   -0.0183910000
H   	    3.3343480000 	   -1.9263840000 	    0.4464060000
H   	    3.9628700000 	   -0.3987710000 	    0.0696980000
H   	    1.0659860000 	   -2.2996420000 	   -0.1852930000
H   	   -1.9249430000 	    2.1835320000 	    0.0189190000
H   	   -3.9438470000 	    0.6919540000 	    0.0114870000
H   	   -3.6338640000 	   -1.7731610000 	   -0.0104090000
H   	   -1.3614810000 	   -2.7515250000 	   -0.0107590000
