19
tauto -548.447467194
N   	   -3.1879410000 	   -1.1333280000 	   -0.0673130000
C   	   -1.9079030000 	   -0.6296490000 	   -0.0037760000
N   	   -1.8145440000 	    0.7441480000 	   -0.0052240000
N   	   -0.8933710000 	   -1.4257830000 	    0.0098270000
C   	    0.3655630000 	   -0.8387620000 	   -0.0000220000
C   	    1.4969530000 	   -1.6724450000 	   -0.0082280000
C   	    2.7653690000 	   -1.1252700000 	   -0.0050820000
C   	    2.9524020000 	    0.2657930000 	    0.0062710000
C   	    1.8517550000 	    1.0988930000 	    0.0132070000
C   	    0.5621090000 	    0.5533920000 	    0.0111090000
C   	   -0.6042280000 	    1.4414090000 	    0.0023320000
O   	   -0.5936990000 	    2.6579450000 	   -0.0102460000
H   	   -3.9004320000 	   -0.6357030000 	    0.4481950000
H   	   -3.2073660000 	   -2.1331780000 	    0.0804960000
H   	   -2.6421740000 	    1.3180690000 	   -0.1024120000
H   	    1.3397750000 	   -2.7469310000 	   -0.0168170000
H   	    3.6310300000 	   -1.7834000000 	   -0.0117230000
H   	    3.9560230000 	    0.6814170000 	    0.0090210000
H   	    1.9516100000 	    2.1807430000 	    0.0193120000
