19
tauto -440.116808056
C   	    3.4326450000 	   -0.6068700000 	   -0.0000780000
N   	    1.9990690000 	   -0.8183980000 	    0.0000480000
C   	    1.2387860000 	    0.1982680000 	    0.0000270000
C   	   -0.2419310000 	    0.0657400000 	    0.0000240000
C   	   -1.0665460000 	    1.1913870000 	   -0.0000060000
C   	   -2.4498010000 	    1.0412800000 	   -0.0000370000
C   	   -3.0147750000 	   -0.2298400000 	   -0.0000280000
C   	   -2.1924690000 	   -1.3552280000 	    0.0000100000
C   	   -0.8119730000 	   -1.2093250000 	    0.0000300000
O   	    1.6411780000 	    1.4980230000 	    0.0000270000
H   	    3.9386300000 	   -1.5749130000 	   -0.0014650000
H   	    3.7781820000 	   -0.0615830000 	    0.8928890000
H   	    3.7779160000 	   -0.0592540000 	   -0.8917550000
H   	   -0.6220370000 	    2.1813920000 	   -0.0000090000
H   	   -3.0874890000 	    1.9216190000 	   -0.0000670000
H   	   -4.0958490000 	   -0.3456320000 	   -0.0000500000
H   	   -2.6308680000 	   -2.3498650000 	    0.0000190000
H   	   -0.1521510000 	   -2.0715490000 	    0.0000490000
H   	    2.6071410000 	    1.5319120000 	    0.0001800000
