13
tauto -307.357702375
O   	    2.2965390000 	    0.0094090000 	   -0.0000260000
C   	    1.0790920000 	    0.0246960000 	   -0.0000020000
C   	    0.3105820000 	    1.2832500000 	    0.0000130000
C   	   -1.0333010000 	    1.2776670000 	   -0.0000010000
C   	   -1.8135640000 	    0.0397830000 	   -0.0000090000
C   	   -1.2043430000 	   -1.1505340000 	   -0.0000200000
C   	    0.2877230000 	   -1.2778760000 	    0.0000300000
H   	    0.8889520000 	    2.2026260000 	    0.0000310000
H   	   -1.5756890000 	    2.2212010000 	    0.0000190000
H   	   -2.8976960000 	    0.1116380000 	   -0.0000180000
H   	   -1.7857770000 	   -2.0702540000 	   -0.0000480000
H   	    0.6204210000 	   -1.8612510000 	   -0.8695590000
H   	    0.6203460000 	   -1.8611420000 	    0.8697230000
