20
tauto -640.639858791
O   	   -0.8514830000 	    2.9092240000 	   -0.0000810000
C   	   -0.2672580000 	    1.8423880000 	    0.0000450000
N   	    1.1177620000 	    1.7555530000 	    0.0000230000
C   	    1.6238310000 	    0.5643160000 	   -0.0000030000
N   	    2.9371450000 	    0.2191210000 	    0.0000290000
N   	    3.1398120000 	   -1.1299210000 	    0.0000000000
C   	    1.9522770000 	   -1.6364180000 	    0.0000080000
N   	    0.9800530000 	   -0.6571250000 	   -0.0000620000
C   	   -0.4233340000 	   -0.6912080000 	   -0.0000200000
C   	   -1.0526510000 	    0.5556050000 	    0.0000140000
C   	   -2.4474400000 	    0.5966210000 	    0.0000370000
C   	   -3.1868090000 	   -0.5753240000 	    0.0000320000
C   	   -2.5350010000 	   -1.8113060000 	    0.0000020000
C   	   -1.1499120000 	   -1.8807960000 	   -0.0000260000
H   	    3.7140820000 	    0.8599010000 	    0.0001500000
H   	    1.7414330000 	   -2.6956040000 	   -0.0000250000
H   	   -2.9178110000 	    1.5754320000 	    0.0000650000
H   	   -4.2723000000 	   -0.5355640000 	    0.0000530000
H   	   -3.1132880000 	   -2.7312890000 	   -0.0000020000
H   	   -0.6458740000 	   -2.8433200000 	   -0.0000540000
