14
tauto -415.861621489
O   	    2.6530390000 	   -0.2162730000 	   -0.1490640000
C   	    1.3140960000 	   -0.1425850000 	    0.0273600000
C   	    0.6810400000 	    1.1830350000 	    0.3580390000
C   	   -0.7038700000 	    1.2467850000 	   -0.2839310000
N   	    0.6632540000 	   -1.2291310000 	   -0.0801900000
N   	   -0.7026710000 	   -1.1346440000 	    0.1484000000
C   	   -1.4880310000 	   -0.0261550000 	   -0.0293970000
O   	   -2.7027400000 	   -0.0822390000 	    0.0040660000
H   	    3.0308570000 	    0.6679440000 	   -0.0787820000
H   	    1.3058900000 	    2.0176280000 	    0.0200350000
H   	    0.5974700000 	    1.2615590000 	    1.4507550000
H   	   -0.6119750000 	    1.3597690000 	   -1.3717800000
H   	   -1.2937660000 	    2.0882840000 	    0.0845870000
H   	   -1.1743610000 	   -2.0271400000 	    0.1452820000
