25
tauto -352.503126385
C   	   -2.3049020000 	   -0.2856830000 	   -1.1797380000
C   	   -1.5179790000 	    0.3797480000 	   -0.0443350000
C   	   -2.1738110000 	    0.0849210000 	    1.3113700000
C   	   -0.0717950000 	   -0.0490910000 	   -0.0523160000
C   	    1.0167080000 	    0.7306660000 	   -0.0602740000
C   	    1.1023440000 	    2.2265310000 	   -0.0816780000
C   	    2.2874930000 	   -0.0922260000 	   -0.0967250000
C   	    1.8085780000 	   -1.5094430000 	    0.2637530000
C   	    0.3111430000 	   -1.5177470000 	   -0.0919450000
H   	   -3.3359050000 	    0.0854870000 	   -1.2056190000
H   	   -2.3476280000 	   -1.3733790000 	   -1.0445490000
H   	   -1.8450310000 	   -0.0846120000 	   -2.1536180000
H   	   -1.5585080000 	    1.4652650000 	   -0.2024110000
H   	   -2.1749300000 	   -0.9913450000 	    1.5230430000
H   	   -3.2158700000 	    0.4257490000 	    1.3218560000
H   	   -1.6396410000 	    0.5873420000 	    2.1247400000
H   	    0.1207200000 	    2.7084380000 	   -0.1022570000
H   	    1.6645840000 	    2.5691210000 	   -0.9602420000
H   	    1.6405080000 	    2.5970270000 	    0.8003000000
H   	    3.0510570000 	    0.2843300000 	    0.5964750000
H   	    2.7348260000 	   -0.0526100000 	   -1.1017130000
H   	    1.9254610000 	   -1.6666770000 	    1.3419390000
H   	    2.3731950000 	   -2.2970320000 	   -0.2450260000
H   	   -0.2788490000 	   -2.1358180000 	    0.5970160000
H   	    0.1393420000 	   -1.9273370000 	   -1.0986020000
