21
tauto -549.601045856
C   	    3.8304980000 	   -0.3475680000 	    0.0000520000
C   	    2.3386800000 	   -0.3951130000 	    0.0000050000
N   	    1.5988220000 	    0.7379940000 	    0.0000110000
N   	    0.2921980000 	    0.3996360000 	   -0.0000920000
C   	    1.4792910000 	   -1.4713930000 	   -0.0000040000
C   	    0.1545920000 	   -0.9472250000 	   -0.0000540000
C   	   -1.1617190000 	   -1.4219800000 	   -0.0000240000
C   	   -2.1694000000 	   -0.4585660000 	    0.0000120000
C   	   -3.6134170000 	   -0.8858640000 	    0.0000350000
N   	   -1.9827220000 	    0.8702310000 	    0.0000300000
C   	   -0.7425570000 	    1.3853800000 	   -0.0000020000
O   	   -0.3677220000 	    2.5511670000 	    0.0000170000
H   	    4.2069920000 	    0.1730070000 	   -0.8863400000
H   	    4.2347650000 	   -1.3616090000 	   -0.0002660000
H   	    4.2069520000 	    0.1724590000 	    0.8867820000
H   	    1.8104630000 	    1.7274350000 	   -0.0001890000
H   	    1.7596960000 	   -2.5146300000 	    0.0000370000
H   	   -1.3757610000 	   -2.4831080000 	   -0.0000160000
H   	   -3.7213590000 	   -1.9741040000 	    0.0002000000
H   	   -4.1169000000 	   -0.4750610000 	   -0.8803790000
H   	   -4.1169590000 	   -0.4747730000 	    0.8802770000
