13
tauto -286.472347735
C   	   -0.9288090000 	   -0.9997410000 	   -0.2997370000
C   	    0.4410090000 	   -1.2126250000 	    0.3204200000
O   	    1.3830240000 	   -0.2631010000 	   -0.1688720000
N   	    1.0173030000 	    1.0661880000 	   -0.0834070000
C   	   -0.2193460000 	    1.3468200000 	    0.0675450000
C   	   -1.3875530000 	    0.3991550000 	    0.1004050000
H   	   -1.6334180000 	   -1.7675000000 	    0.0360730000
H   	   -0.8400290000 	   -1.0785430000 	   -1.3888530000
H   	    0.8754750000 	   -2.1827520000 	    0.0684200000
H   	    0.3812690000 	   -1.1237810000 	    1.4160860000
H   	   -0.4101890000 	    2.4166790000 	    0.1347800000
H   	   -2.1660330000 	    0.7786730000 	   -0.5715680000
H   	   -1.8241980000 	    0.3970640000 	    1.1080880000
