25
tauto -439.864519388
C   	    3.1396990000 	   -2.1400660000 	    0.1133940000
C   	    2.9032530000 	   -0.6707850000 	   -0.2053130000
N   	    1.5496920000 	   -0.2948080000 	    0.1631290000
C   	    1.0785640000 	    0.9915240000 	    0.0788960000
C   	    2.0766350000 	    2.1040420000 	    0.2190250000
C   	   -0.2436820000 	    1.2573680000 	   -0.0748870000
N   	   -1.1228500000 	    0.1876370000 	   -0.2392650000
N   	   -2.3248780000 	    0.5092660000 	   -0.3373350000
C   	   -3.2015710000 	   -0.6482520000 	   -0.5045190000
C   	   -4.1826320000 	   -0.7156250000 	    0.6608980000
H   	    4.1649200000 	   -2.4283770000 	   -0.1376950000
H   	    2.4616220000 	   -2.7806420000 	   -0.4623790000
H   	    2.9723490000 	   -2.3335620000 	    1.1774660000
H   	    3.1039490000 	   -0.4854310000 	   -1.2735750000
H   	    3.6091800000 	   -0.0562230000 	    0.3642420000
H   	    0.8323590000 	   -0.9801500000 	   -0.0467400000
H   	    2.8011940000 	    2.0941310000 	   -0.6035790000
H   	    2.6375470000 	    2.0070050000 	    1.1555850000
H   	    1.5699350000 	    3.0713540000 	    0.2155730000
H   	   -0.6392840000 	    2.2700440000 	   -0.0624100000
H   	   -2.6109050000 	   -1.5706500000 	   -0.5856820000
H   	   -3.7519180000 	   -0.5005140000 	   -1.4426680000
H   	   -3.6507290000 	   -0.8966390000 	    1.6007760000
H   	   -4.9077030000 	   -1.5227770000 	    0.5136470000
H   	   -4.7278730000 	    0.2285410000 	    0.7567730000
