16
tauto -488.237304037
O   	    1.2549930000 	    2.1911130000 	   -0.0630310000
C   	    1.0115210000 	    1.0143400000 	    0.0118840000
N   	   -0.2801570000 	    0.4923290000 	   -0.1160100000
N   	   -1.4327560000 	    1.2645920000 	   -0.1091010000
C   	   -2.3763860000 	    0.4018040000 	    0.0283100000
N   	   -1.9284780000 	   -0.8953330000 	    0.1291920000
C   	   -0.5487440000 	   -0.8771050000 	    0.0164740000
N   	    0.2585610000 	   -1.8555090000 	    0.0066940000
C   	    1.6339040000 	   -1.4475690000 	   -0.2655880000
C   	    2.0122750000 	   -0.0838970000 	    0.3269390000
H   	   -3.4247990000 	    0.6637870000 	    0.0687160000
H   	   -2.4741510000 	   -1.7398730000 	    0.1733360000
H   	    1.7848040000 	   -1.4252860000 	   -1.3556700000
H   	    2.3099880000 	   -2.2120410000 	    0.1279410000
H   	    2.9944950000 	    0.2497870000 	   -0.0164850000
H   	    2.0541170000 	   -0.1532690000 	    1.4228680000
