11
tauto -376.560599421
N   	    2.3075840000 	   -0.5390610000 	   -0.0733540000
C   	    0.9918140000 	   -0.1681920000 	   -0.0085690000
N   	   -0.0473930000 	   -0.9482460000 	   -0.0011820000
C   	   -1.1051000000 	   -0.0577190000 	    0.0013830000
O   	   -2.3755100000 	   -0.5016900000 	    0.0082190000
C   	   -0.6636790000 	    1.2163520000 	    0.0025630000
O   	    0.7304600000 	    1.1402140000 	   -0.0046940000
H   	    2.4725890000 	   -1.4951520000 	    0.2042380000
H   	    2.9601910000 	    0.1266060000 	    0.3139300000
H   	   -2.3247190000 	   -1.4674240000 	   -0.0062950000
H   	   -1.1072050000 	    2.1962840000 	    0.0094120000
