12
tauto -248.360718167
C   	    2.3239360000 	    0.1360680000 	   -0.1337390000
C   	    0.9570210000 	   -0.5294590000 	    0.0017930000
C   	   -0.1585330000 	    0.4987600000 	    0.1798660000
N   	   -1.4308510000 	   -0.2173190000 	    0.4326260000
O   	   -2.2743220000 	    0.0076630000 	   -0.3964070000
H   	    3.1107200000 	   -0.6115710000 	   -0.2738760000
H   	    2.5698840000 	    0.7181530000 	    0.7618360000
H   	    2.3503450000 	    0.8160490000 	   -0.9925890000
H   	    0.9487540000 	   -1.2136070000 	    0.8585030000
H   	    0.7431920000 	   -1.1343430000 	   -0.8879000000
H   	   -0.2740200000 	    1.1544520000 	   -0.6913140000
H   	    0.0271090000 	    1.0985840000 	    1.0806930000
