12
tauto -414.66867703
O   	   -1.9648700000 	   -1.0148200000 	   -0.0001710000
C   	   -0.6762070000 	   -0.6101470000 	   -0.0000510000
C   	    0.4108110000 	   -1.4220790000 	   -0.0000720000
N   	    1.7166510000 	   -0.9761800000 	    0.0000680000
C   	    1.8786270000 	    0.2994780000 	    0.0000370000
N   	    0.8469760000 	    1.1953460000 	   -0.0001140000
C   	   -0.5058020000 	    0.8465910000 	    0.0000220000
O   	   -1.3849320000 	    1.6837350000 	    0.0000780000
H   	   -1.9897370000 	   -1.9811060000 	    0.0013690000
H   	    0.2884240000 	   -2.5049190000 	   -0.0001460000
H   	    2.8788630000 	    0.7265010000 	    0.0001030000
H   	    1.0309010000 	    2.1909880000 	    0.0001230000
