19
tauto -460.979628892
O   	   -1.5369970000 	    2.2156720000 	    0.0002720000
C   	   -1.3069980000 	    1.0177120000 	    0.0000810000
C   	   -2.4024840000 	    0.0246030000 	   -0.0004040000
C   	   -2.1681450000 	   -1.2893770000 	   -0.0003030000
C   	   -0.7974970000 	   -1.8904500000 	    0.0004030000
C   	    0.0869770000 	    0.4833860000 	    0.0001100000
C   	    0.3335600000 	   -0.8929550000 	    0.0001150000
C   	    1.6577340000 	   -1.3395670000 	   -0.0000370000
C   	    2.7099530000 	   -0.4351860000 	   -0.0001660000
C   	    2.4577510000 	    0.9383930000 	   -0.0001320000
C   	    1.1497050000 	    1.3919040000 	   -0.0000020000
H   	   -3.4092340000 	    0.4329530000 	   -0.0008110000
H   	   -3.0027800000 	   -1.9889280000 	   -0.0006140000
H   	   -0.7023750000 	   -2.5547540000 	   -0.8707430000
H   	   -0.7028990000 	   -2.5534890000 	    0.8725890000
H   	    1.8602950000 	   -2.4093210000 	   -0.0000630000
H   	    3.7341540000 	   -0.8000960000 	   -0.0003070000
H   	    3.2829200000 	    1.6454660000 	   -0.0002220000
H   	    0.9125560000 	    2.4520240000 	    0.0000080000
