18
tauto -419.05905913
N   	   -3.3208340000 	   -0.0971750000 	   -0.0823130000
C   	   -1.9347320000 	    0.0768330000 	   -0.0055560000
C   	   -1.1597510000 	    1.2006720000 	    0.0031320000
C   	    0.2122350000 	    0.7587200000 	   -0.0005790000
C   	    1.4503830000 	    1.4133800000 	    0.0073230000
C   	    2.6132810000 	    0.6590670000 	    0.0023230000
C   	    2.5679370000 	   -0.7444820000 	   -0.0051610000
C   	    1.3562020000 	   -1.4190660000 	    0.0003380000
C   	    0.1924790000 	   -0.6532440000 	    0.0036310000
N   	   -1.1358420000 	   -1.0481490000 	    0.0243430000
H   	   -1.4702010000 	   -1.9639360000 	   -0.2294610000
H   	   -3.8001360000 	    0.7924930000 	   -0.1366570000
H   	   -3.6899990000 	   -0.6269030000 	    0.7001700000
H   	   -1.5190540000 	    2.2211680000 	    0.0340810000
H   	    1.4973050000 	    2.4999790000 	    0.0125200000
H   	    3.5781570000 	    1.1598680000 	    0.0038350000
H   	    3.4956880000 	   -1.3107570000 	   -0.0129170000
H   	    1.3167630000 	   -2.5059230000 	    0.0015020000
