32
tauto -560.396744538
C   	   -0.3246510000 	   -1.0487830000 	   -1.7447800000
C   	    0.1002760000 	   -0.5409640000 	   -0.3843730000
C   	    1.5734220000 	   -0.5673170000 	   -0.1537570000
C   	    2.2471150000 	   -1.9278630000 	   -0.1879920000
C   	    2.3144340000 	    0.5383970000 	    0.0294860000
C   	    1.8408360000 	    1.9572120000 	    0.0594730000
O   	    3.6704950000 	    0.4954800000 	    0.2075770000
C   	   -0.7905260000 	   -0.1275850000 	    0.5334470000
C   	   -0.4278050000 	    0.3910140000 	    1.9025320000
C   	   -2.2749740000 	   -0.2067040000 	    0.2804390000
C   	   -2.9638090000 	   -1.3953490000 	    0.9075870000
N   	   -2.9861860000 	    0.6090910000 	   -0.3884790000
C   	   -2.3755550000 	    1.7532080000 	   -1.0323730000
H   	    0.0099470000 	   -0.3504630000 	   -2.5226440000
H   	   -1.4084920000 	   -1.1622320000 	   -1.8355300000
H   	    0.1416310000 	   -2.0153730000 	   -1.9706060000
H   	    1.5069950000 	   -2.7301820000 	   -0.2486500000
H   	    2.8261030000 	   -2.1185870000 	    0.7270440000
H   	    2.9250110000 	   -2.0489580000 	   -1.0450240000
H   	    0.7991310000 	    2.0368800000 	   -0.2545700000
H   	    2.4663660000 	    2.5647930000 	   -0.6025290000
H   	    1.9364700000 	    2.3704610000 	    1.0705250000
H   	    3.9656500000 	   -0.4239300000 	    0.1866260000
H   	    0.6147110000 	    0.1762220000 	    2.1505220000
H   	   -1.0697000000 	   -0.0490890000 	    2.6747980000
H   	   -0.5731740000 	    1.4786390000 	    1.9558970000
H   	   -2.7611500000 	   -1.4562360000 	    1.9832320000
H   	   -2.5878800000 	   -2.3235610000 	    0.4594430000
H   	   -4.0413160000 	   -1.3242360000 	    0.7449110000
H   	   -2.4620170000 	    1.6304740000 	   -2.1187130000
H   	   -1.3167700000 	    1.9157770000 	   -0.7875300000
H   	   -2.9447460000 	    2.6505260000 	   -0.7665990000
