22
tauto -404.407399723
C   	    0.6027850000 	    1.8456390000 	   -0.9313740000
C   	    0.2854140000 	    0.5711910000 	   -0.1741870000
C   	   -1.1447980000 	    0.3211380000 	    0.1908550000
C   	   -1.7669910000 	    1.3611940000 	    1.0944180000
N   	   -1.8780620000 	   -0.6569300000 	   -0.1705950000
C   	   -1.3738450000 	   -1.6743810000 	   -1.0685300000
C   	    1.2704080000 	   -0.2553500000 	    0.2142920000
C   	    1.1259310000 	   -1.5166350000 	    1.0067740000
O   	    2.5860720000 	   -0.0157940000 	   -0.0601470000
H   	   -0.3114720000 	    2.3626250000 	   -1.2349280000
H   	    1.1572250000 	    1.6409950000 	   -1.8583070000
H   	    1.1919140000 	    2.5579130000 	   -0.3364150000
H   	   -1.2507980000 	    1.3785080000 	    2.0618610000
H   	   -2.8233070000 	    1.1318390000 	    1.2489070000
H   	   -1.6755100000 	    2.3670700000 	    0.6671330000
H   	   -2.1362500000 	   -1.8670370000 	   -1.8309590000
H   	   -1.2382770000 	   -2.6113020000 	   -0.5139030000
H   	   -0.4249720000 	   -1.4246830000 	   -1.5626960000
H   	    0.1115450000 	   -1.6357830000 	    1.3916170000
H   	    1.8309460000 	   -1.5020980000 	    1.8441410000
H   	    1.3721690000 	   -2.3853310000 	    0.3851760000
H   	    2.6612270000 	    0.7953760000 	   -0.5797690000
