14
tauto -415.854429021
C   	    2.9059560000 	    0.1126980000 	    0.0000320000
O   	    1.7902520000 	   -0.7715280000 	   -0.0000800000
C   	    0.6057800000 	   -0.1446930000 	    0.0000100000
N   	   -0.5290610000 	   -0.9043170000 	    0.0001660000
H   	   -0.5922520000 	   -1.9095210000 	    0.0002710000
N   	    0.3692450000 	    1.1293140000 	   -0.0000030000
C   	   -1.0230300000 	    1.2329050000 	    0.0002370000
C   	   -1.5762840000 	   -0.0080410000 	   -0.0000800000
O   	   -2.8361470000 	   -0.5070550000 	   -0.0003020000
H   	    3.7902850000 	   -0.5257190000 	   -0.0001240000
H   	    2.8913090000 	    0.7502420000 	    0.8892370000
H   	    2.8912270000 	    0.7505850000 	   -0.8889200000
H   	   -1.5183010000 	    2.1944430000 	    0.0003540000
H   	   -3.4509230000 	    0.2364340000 	   -0.0000940000
