12
tauto -410.808453857
N   	   -2.3560510000 	   -0.8089750000 	   -0.0543070000
C   	   -1.1500090000 	   -0.1816550000 	   -0.0049330000
N   	   -0.0257720000 	   -0.9289710000 	   -0.0011590000
C   	   -0.9676150000 	    1.1873510000 	    0.0002460000
N   	    0.2705290000 	    1.7272470000 	    0.0028590000
N   	    1.3489130000 	    1.0283230000 	    0.0072890000
C   	    1.2733280000 	   -0.3701460000 	    0.0021790000
O   	    2.2319310000 	   -1.1083230000 	   -0.0007100000
H   	   -2.4250450000 	   -1.7646560000 	    0.2621940000
H   	   -3.1731860000 	   -0.2433170000 	    0.1176580000
H   	   -0.0523970000 	   -1.9406940000 	   -0.0417130000
H   	   -1.8023740000 	    1.8785770000 	   -0.0001790000
