14
tauto -490.783619939
O   	   -1.7210030000 	    2.0219750000 	   -0.0000020000
C   	   -1.2821240000 	    0.8769460000 	    0.0000630000
C   	    0.1507710000 	    0.5603720000 	    0.0000450000
C   	    1.2986650000 	    1.3094660000 	    0.0000520000
N   	    2.3418990000 	    0.4785550000 	   -0.0009570000
O   	    1.9519040000 	   -0.8351660000 	    0.0001290000
C   	    0.5729560000 	   -0.7976830000 	    0.0000680000
N   	   -0.1288160000 	   -1.8760270000 	    0.0000050000
C   	   -1.4832890000 	   -1.5888760000 	   -0.0000090000
C   	   -2.0664230000 	   -0.3561890000 	    0.0000220000
H   	    1.4425750000 	    2.3826820000 	    0.0004440000
H   	    3.3384670000 	    0.6183740000 	    0.0038320000
H   	   -2.1156310000 	   -2.4744350000 	   -0.0000480000
H   	   -3.1475340000 	   -0.2630150000 	   -0.0000340000
