12
tauto -356.69660838
N   	    2.3743030000 	   -0.5407290000 	   -0.0779760000
C   	    1.0740760000 	   -0.0238050000 	   -0.0040630000
N   	   -0.0099300000 	   -0.8637020000 	   -0.0048610000
H   	   -0.0030680000 	   -1.8606150000 	   -0.1508340000
N   	    0.7230990000 	    1.2286420000 	    0.0166370000
C   	   -0.6673900000 	    1.2262830000 	    0.0076040000
C   	   -1.1222070000 	   -0.0560500000 	   -0.0003920000
O   	   -2.3410160000 	   -0.6495580000 	    0.0025120000
H   	    2.6459570000 	   -1.0129870000 	    0.7790660000
H   	    3.0136750000 	    0.2309270000 	   -0.2332390000
H   	   -1.2374910000 	    2.1457090000 	    0.0237280000
H   	   -3.0101270000 	    0.0453910000 	    0.0056860000
