18
tauto -568.292874833
O   	    0.7710060000 	    2.6190300000 	    0.0001470000
C   	    0.7875750000 	    1.2779950000 	    0.0000620000
C   	   -0.4808350000 	    0.5438230000 	    0.0000180000
C   	   -1.7597390000 	    1.1205680000 	   -0.0001970000
C   	   -2.8922810000 	    0.3308130000 	   -0.0002020000
C   	   -2.7591040000 	   -1.0646150000 	   -0.0000260000
C   	   -1.5132160000 	   -1.6582390000 	    0.0001410000
C   	   -0.3627260000 	   -0.8540590000 	    0.0001500000
N   	    0.8976140000 	   -1.3916570000 	    0.0002920000
N   	    1.9520440000 	    0.7368270000 	    0.0000300000
C   	    2.0840830000 	   -0.6466150000 	   -0.0000630000
O   	    3.1494350000 	   -1.2222230000 	   -0.0003550000
H   	   -0.1364400000 	    2.9471870000 	    0.0004260000
H   	   -1.8878190000 	    2.2019480000 	   -0.0003650000
H   	   -3.8770970000 	    0.7869950000 	   -0.0003550000
H   	   -3.6476130000 	   -1.6903320000 	   -0.0000350000
H   	   -1.4107250000 	   -2.7404650000 	    0.0002680000
H   	    1.0260230000 	   -2.3940060000 	    0.0001650000
