12
tauto -414.626321855
O   	   -1.8186740000 	    1.3395910000 	    0.0720180000
C   	   -0.7398940000 	    0.7888340000 	    0.0246050000
C   	    0.5453350000 	    1.4670950000 	   -0.0550930000
C   	    1.6989110000 	    0.7684130000 	   -0.0448240000
N   	    1.7716770000 	   -0.5975340000 	   -0.0674070000
N   	    0.5821560000 	   -1.3062490000 	    0.1259920000
C   	   -0.6796100000 	   -0.7451740000 	    0.0093560000
O   	   -1.6564490000 	   -1.4511770000 	   -0.0921320000
H   	    0.5522330000 	    2.5499370000 	   -0.1009340000
H   	    2.6724470000 	    1.2500410000 	   -0.0460280000
H   	    2.5206290000 	   -0.9907750000 	    0.4908010000
H   	    0.6303900000 	   -2.2650470000 	   -0.1972880000
