18
tauto -514.143544432
O   	   -1.5711760000 	   -2.3636710000 	   -0.1223430000
C   	   -1.1669120000 	   -1.2266550000 	    0.0143120000
C   	   -2.1078930000 	   -0.0591270000 	    0.3067080000
C   	   -1.6652040000 	    1.3022050000 	   -0.2567550000
C   	   -0.2002620000 	    1.6341590000 	   -0.0275900000
O   	    0.2353240000 	    2.7686080000 	    0.0527750000
C   	    0.2607750000 	   -0.8667530000 	   -0.0106100000
C   	    0.6639980000 	    0.4569590000 	    0.0133930000
N   	    2.0227880000 	    0.4841060000 	    0.0294630000
H   	    2.5617160000 	    1.3377930000 	    0.0348090000
C   	    2.4992840000 	   -0.7974490000 	    0.0085390000
C   	    1.4310770000 	   -1.6659700000 	   -0.0183060000
H   	   -2.1767590000 	    0.0062520000 	    1.4014990000
H   	   -3.1032140000 	   -0.3295840000 	   -0.0558800000
H   	   -2.2694890000 	    2.1181560000 	    0.1496520000
H   	   -1.8109690000 	    1.3147880000 	   -1.3458720000
H   	    3.5627610000 	   -0.9935710000 	    0.0170750000
H   	    1.4740820000 	   -2.7462870000 	   -0.0291310000
