16
tauto -509.048051816
O   	   -1.8610190000 	    1.9130880000 	    0.0002970000
C   	   -1.3894750000 	    0.6634990000 	   -0.0004280000
N   	   -2.2486610000 	   -0.3199130000 	   -0.0000720000
N   	   -1.8113820000 	   -1.6052790000 	    0.0001490000
N   	   -0.5684720000 	   -1.8917070000 	   -0.0000430000
C   	    0.3769690000 	   -0.8876230000 	    0.0000010000
C   	    1.7436990000 	   -1.2439710000 	    0.0000750000
C   	    2.6943160000 	   -0.2538640000 	    0.0000640000
C   	    2.3222600000 	    1.1124170000 	    0.0000160000
C   	    0.9987710000 	    1.4775950000 	   -0.0000580000
C   	    0.0166040000 	    0.4644570000 	   -0.0001820000
H   	   -2.8306160000 	    1.8378070000 	    0.0003410000
H   	    2.0004770000 	   -2.2987900000 	    0.0001680000
H   	    3.7490880000 	   -0.5153150000 	    0.0001530000
H   	    3.0958090000 	    1.8752160000 	   -0.0000200000
H   	    0.6941340000 	    2.5196040000 	   -0.0001790000
