19
tauto -552.231201701
O   	    3.2363070000 	   -1.0758970000 	   -0.0582880000
C   	    2.0257390000 	   -0.4702670000 	   -0.0040380000
N   	    0.9440030000 	   -1.3161120000 	    0.0261850000
C   	   -0.3579130000 	   -0.8146570000 	    0.0105670000
C   	   -0.5563660000 	    0.5696330000 	    0.0105120000
C   	   -1.8632600000 	    1.0683190000 	    0.0095770000
C   	   -2.9480590000 	    0.2115220000 	    0.0001360000
C   	   -2.7347410000 	   -1.1725330000 	   -0.0080560000
C   	   -1.4517490000 	   -1.6893340000 	    0.0001790000
C   	    1.9076730000 	    0.8758950000 	    0.0055680000
C   	    0.5996980000 	    1.5111920000 	   -0.0050050000
O   	    0.4350040000 	    2.7248810000 	   -0.0084820000
H   	    3.2245960000 	   -1.8766920000 	    0.4835000000
H   	    1.0833520000 	   -2.2683740000 	   -0.2803590000
H   	   -1.9811040000 	    2.1483770000 	    0.0109900000
H   	   -3.9601970000 	    0.6058280000 	   -0.0027790000
H   	   -3.5823480000 	   -1.8530250000 	   -0.0173130000
H   	   -1.2869890000 	   -2.7650490000 	    0.0033040000
H   	    2.7980590000 	    1.4912370000 	    0.0368870000
