14
tauto -490.782441403
O   	    1.7490830000 	    1.9947380000 	   -0.0130920000
C   	    1.2980880000 	    0.8575260000 	   -0.0126420000
C   	   -0.1476060000 	    0.5628690000 	   -0.0305950000
C   	   -1.2672890000 	    1.3152110000 	    0.0329450000
O   	   -2.3838670000 	    0.5748210000 	    0.0456520000
N   	   -1.9806960000 	   -0.7519540000 	   -0.1235880000
C   	   -0.6004120000 	   -0.8027060000 	   -0.0361120000
N   	    0.1107320000 	   -1.8820580000 	    0.0030040000
C   	    1.4701490000 	   -1.6060170000 	    0.0283460000
C   	    2.0689000000 	   -0.3830870000 	    0.0170380000
H   	   -1.4300860000 	    2.3843410000 	    0.0713270000
H   	   -2.5755500000 	   -1.3662630000 	    0.4189630000
H   	    2.0921750000 	   -2.4983620000 	    0.0604910000
H   	    3.1505000000 	   -0.3008910000 	    0.0389470000
