24
tauto -443.507647707
C   	   -2.9178200000 	   -1.5763440000 	   -0.1658700000
C   	   -1.9547280000 	   -0.9577010000 	    0.8498570000
C   	   -1.1589160000 	    0.1950820000 	    0.2520200000
C   	    0.3231770000 	   -0.0031630000 	    0.1186620000
C   	    0.8234880000 	   -1.1516180000 	   -0.5022670000
C   	    2.1937040000 	   -1.3570050000 	   -0.6155410000
C   	    3.0847500000 	   -0.4252080000 	   -0.0892850000
C   	    2.5978060000 	    0.7123820000 	    0.5466650000
C   	    1.2259160000 	    0.9231310000 	    0.6462260000
N   	   -1.8178140000 	    1.2276960000 	   -0.0912530000
C   	   -1.1881630000 	    2.3578250000 	   -0.7435400000
H   	   -3.5204900000 	   -2.3660140000 	    0.2949850000
H   	   -2.3798800000 	   -2.0157330000 	   -1.0146100000
H   	   -3.5882710000 	   -0.8052490000 	   -0.5556260000
H   	   -1.2755410000 	   -1.7183130000 	    1.2498090000
H   	   -2.5294980000 	   -0.5603730000 	    1.6938740000
H   	    0.1314650000 	   -1.8881770000 	   -0.9062310000
H   	    2.5677260000 	   -2.2495440000 	   -1.1106440000
H   	    4.1562230000 	   -0.5884210000 	   -0.1715150000
H   	    3.2877090000 	    1.4392890000 	    0.9678010000
H   	    0.8482840000 	    1.8095410000 	    1.1507210000
H   	   -1.8467880000 	    2.6946310000 	   -1.5509400000
H   	   -0.1909840000 	    2.1612750000 	   -1.1586670000
H   	   -1.1105400000 	    3.1889340000 	   -0.0317460000
