19
tauto -552.21967109
O   	    3.3109150000 	   -0.2116870000 	   -0.0002960000
C   	    2.0093060000 	    0.1835220000 	   -0.0001030000
C   	    1.6039360000 	    1.4732870000 	   -0.0002510000
N   	    0.2730990000 	    1.8287960000 	    0.0001960000
C   	   -0.7271330000 	    0.8860790000 	    0.0000740000
C   	   -2.0819720000 	    1.2685710000 	    0.0000660000
C   	   -3.0627810000 	    0.3003670000 	   -0.0000260000
C   	   -2.7286320000 	   -1.0648720000 	   -0.0000910000
C   	   -1.4019970000 	   -1.4377270000 	   -0.0000710000
C   	   -0.3807630000 	   -0.4738220000 	    0.0000160000
C   	    1.0298540000 	   -0.9151870000 	    0.0000560000
O   	    1.3611000000 	   -2.0916780000 	    0.0001940000
H   	    3.8809190000 	    0.5675380000 	    0.0020600000
H   	    2.3068050000 	    2.3021370000 	   -0.0005670000
H   	    0.0265590000 	    2.8051120000 	    0.0001000000
H   	   -2.3433020000 	    2.3249940000 	    0.0001240000
H   	   -4.1075300000 	    0.6010520000 	   -0.0000570000
H   	   -3.5127610000 	   -1.8162260000 	   -0.0001590000
H   	   -1.0974120000 	   -2.4805750000 	   -0.0000800000
