12
tauto -248.377836761
C   	   -2.2360450000 	   -0.4654680000 	   -0.2086750000
C   	   -1.1915520000 	    0.5966640000 	    0.1446840000
C   	    0.1594740000 	   -0.0042440000 	    0.3816810000
N   	    1.1504770000 	    0.3451920000 	   -0.3337810000
O   	    2.3030890000 	   -0.3364230000 	    0.0417390000
H   	   -3.2222490000 	   -0.0113490000 	   -0.3471630000
H   	   -2.3213310000 	   -1.2171450000 	    0.5844250000
H   	   -1.9662050000 	   -0.9841950000 	   -1.1343710000
H   	   -1.5065800000 	    1.1315440000 	    1.0505780000
H   	   -1.1040910000 	    1.3374550000 	   -0.6566740000
H   	    0.2852920000 	   -0.7578300000 	    1.1656030000
H   	    2.9658580000 	    0.0148480000 	   -0.5659820000
