37
tauto -730.074501138
O   	    0.0481620000 	    3.7976970000 	   -0.0198490000
C   	    0.0838190000 	    2.5706780000 	    0.0016140000
C   	   -1.2516610000 	    1.8241020000 	    0.0739850000
C   	   -1.1998060000 	    0.3233630000 	    0.0204790000
N   	   -2.3946430000 	   -0.3297760000 	   -0.0084080000
C   	   -3.7034150000 	    0.3157640000 	    0.0285930000
C   	   -4.6562320000 	   -0.8436150000 	    0.3223270000
C   	   -3.9807520000 	   -2.0301310000 	   -0.3703630000
C   	   -2.4903320000 	   -1.7769900000 	   -0.1292680000
C   	   -0.0043720000 	   -0.3266310000 	    0.0037670000
C   	    1.2846580000 	    1.7899440000 	   -0.0073210000
C   	    1.2503130000 	    0.4103400000 	    0.0000180000
N   	    2.4017130000 	   -0.3188450000 	   -0.0129630000
C   	    2.4829840000 	   -1.7695050000 	    0.1283290000
C   	    3.9650080000 	   -2.0195440000 	    0.4155890000
C   	    4.6618050000 	   -0.8808550000 	   -0.3322580000
C   	    3.7163660000 	    0.3016040000 	   -0.1175700000
H   	   -1.8862940000 	    2.2126000000 	   -0.7316870000
H   	   -1.7325870000 	    2.1442500000 	    1.0077090000
H   	   -3.9413500000 	    0.7904790000 	   -0.9357140000
H   	   -3.7428650000 	    1.0923290000 	    0.7991480000
H   	   -5.6703310000 	   -0.6519410000 	   -0.0388850000
H   	   -4.7072410000 	   -1.0164710000 	    1.4035000000
H   	   -4.1929620000 	   -2.0067130000 	   -1.4454730000
H   	   -4.3082750000 	   -2.9991780000 	    0.0159650000
H   	   -1.8656730000 	   -2.1366750000 	   -0.9573050000
H   	   -2.1321480000 	   -2.2644650000 	    0.7905510000
H   	    0.0276880000 	   -1.4077320000 	   -0.0358920000
H   	    2.2171420000 	    2.3414420000 	   -0.0115100000
H   	    2.1664680000 	   -2.2770150000 	   -0.7956440000
H   	    1.8423520000 	   -2.1243710000 	    0.9429380000
H   	    4.2899440000 	   -3.0137740000 	    0.0959770000
H   	    4.1532090000 	   -1.9307110000 	    1.4918460000
H   	    4.7284530000 	   -1.1166370000 	   -1.4007840000
H   	    5.6728000000 	   -0.6794420000 	    0.0323830000
H   	    3.7379360000 	    1.0161620000 	   -0.9482970000
H   	    3.9586570000 	    0.8554900000 	    0.8020310000
