12
tauto -414.626299731
O   	    2.3165490000 	   -0.9276610000 	   -0.0003870000
C   	    1.1007300000 	   -0.3494910000 	   -0.0000550000
N   	    1.0472060000 	    1.0148910000 	    0.0000510000
N   	   -0.0982560000 	    1.7295550000 	    0.0000110000
C   	   -1.1984790000 	    1.0591440000 	    0.0000930000
C   	   -0.0353470000 	   -1.0923050000 	    0.0000070000
C   	   -1.3161650000 	   -0.4216700000 	   -0.0000570000
O   	   -2.4116280000 	   -0.9680480000 	    0.0000280000
H   	    3.0255850000 	   -0.2721790000 	    0.0037110000
H   	    1.8794320000 	    1.5846780000 	   -0.0016130000
H   	   -2.1159540000 	    1.6416540000 	    0.0001310000
H   	    0.0244740000 	   -2.1736660000 	    0.0002810000
