19
tauto -552.240402294
O   	    1.1470130000 	    2.7128720000 	   -0.0314320000
C   	    1.0529990000 	    1.3402940000 	    0.0018170000
C   	   -0.2440240000 	    0.6870660000 	   -0.0093190000
C   	   -0.2930170000 	   -0.7189760000 	    0.0152490000
C   	   -1.5250310000 	   -1.3811250000 	    0.0293390000
C   	   -2.7035590000 	   -0.6586360000 	    0.0146450000
C   	   -2.6599710000 	    0.7409720000 	   -0.0284210000
C   	   -1.4487900000 	    1.4080100000 	   -0.0434060000
C   	    2.1714260000 	    0.5950770000 	   -0.0083700000
N   	    2.1055120000 	   -0.7872680000 	   -0.0334260000
C   	    0.9425710000 	   -1.5312500000 	    0.0022920000
O   	    0.9726070000 	   -2.7529000000 	    0.0121530000
H   	    0.6201080000 	    3.0713310000 	    0.6952110000
H   	   -1.5176440000 	   -2.4671450000 	    0.0479060000
H   	   -3.6606810000 	   -1.1725140000 	    0.0262370000
H   	   -3.5865480000 	    1.3088980000 	   -0.0580470000
H   	   -1.4218930000 	    2.4925340000 	   -0.1097930000
H   	    3.1590060000 	    1.0407680000 	   -0.0047800000
H   	    2.9564740000 	   -1.3313650000 	   -0.0514690000
