12
tauto -410.828174391
N   	    2.3149650000 	   -0.8252120000 	   -0.0649870000
C   	    1.0531780000 	   -0.2943000000 	   -0.0058760000
N   	    0.9800930000 	    1.0683000000 	   -0.0027550000
N   	   -0.1954710000 	    1.7453330000 	    0.0017800000
C   	   -1.2478380000 	    1.0117010000 	    0.0151390000
N   	    0.0175780000 	   -1.0766830000 	    0.0103570000
C   	   -1.2354060000 	   -0.4782490000 	    0.0019620000
O   	   -2.2763640000 	   -1.1036540000 	   -0.0064900000
H   	    3.0634340000 	   -0.3308450000 	    0.3983500000
H   	    2.3194870000 	   -1.8255890000 	    0.0797620000
H   	    1.7953350000 	    1.6479760000 	   -0.1288120000
H   	   -2.2071050000 	    1.5206210000 	    0.0245040000
