23
tauto -442.532454453
C   	   -1.7323490000 	   -0.2354000000 	    1.5293070000
C   	   -1.5056150000 	   -0.0862600000 	    0.0172750000
C   	   -1.9445600000 	   -1.3607940000 	   -0.7109830000
C   	   -2.3273270000 	    1.0923650000 	   -0.5139730000
N   	   -0.0801610000 	    0.1376400000 	   -0.2744800000
C   	    0.9129900000 	   -0.9173920000 	   -0.1243910000
C   	    0.5631840000 	    1.3325440000 	   -0.1145590000
C   	    1.9112730000 	    1.2398630000 	    0.0140400000
C   	    2.2562210000 	   -0.1728000000 	   -0.0015320000
O   	    3.3372250000 	   -0.7260840000 	    0.0594970000
H   	   -2.7940410000 	   -0.3983180000 	    1.7456570000
H   	   -1.4089600000 	    0.6678160000 	    2.0589120000
H   	   -1.1753980000 	   -1.0871130000 	    1.9349990000
H   	   -3.0120010000 	   -1.5372410000 	   -0.5433100000
H   	   -1.4024930000 	   -2.2408880000 	   -0.3493510000
H   	   -1.7731150000 	   -1.2674040000 	   -1.7886800000
H   	   -3.3936270000 	    0.8646190000 	   -0.4181880000
H   	   -2.1069700000 	    1.2754870000 	   -1.5709970000
H   	   -2.1442580000 	    2.0142900000 	    0.0480370000
H   	    0.9308370000 	   -1.5950710000 	   -0.9838490000
H   	    0.7457760000 	   -1.5115170000 	    0.7829810000
H   	   -0.0180170000 	    2.2486930000 	   -0.1274240000
H   	    2.6127000000 	    2.0590800000 	    0.0854960000
