22
tauto -346.419162657
C   	    2.8749050000 	    0.8796020000 	   -0.4890060000
C   	    2.6441200000 	   -0.6159850000 	   -0.2761680000
C   	    1.1749740000 	   -1.0381130000 	   -0.1587130000
N   	    0.4112020000 	   -0.4251480000 	    0.9267650000
N   	   -0.1618020000 	    0.8241300000 	    0.6459390000
C   	   -1.4488330000 	    0.7805250000 	    0.0845670000
C   	   -2.2744710000 	   -0.2651740000 	    0.0385200000
C   	   -3.6693360000 	   -0.1870860000 	   -0.5113110000
H   	    3.9375490000 	    1.0956240000 	   -0.6400110000
H   	    2.5505810000 	    1.4639960000 	    0.3807570000
H   	    2.3351420000 	    1.2455270000 	   -1.3714080000
H   	    3.1773030000 	   -0.9375880000 	    0.6298530000
H   	    3.0937310000 	   -1.1772410000 	   -1.1058610000
H   	    1.1358510000 	   -2.1270810000 	   -0.0233430000
H   	    0.6313560000 	   -0.8203930000 	   -1.0863110000
H   	    0.9589740000 	   -0.3421560000 	    1.7761490000
H   	    0.4495920000 	    1.4540900000 	    0.1343550000
H   	   -1.7605580000 	    1.7535800000 	   -0.2967510000
H   	   -1.9317070000 	   -1.2161920000 	    0.4393050000
H   	   -3.8924530000 	    0.8150570000 	   -0.8952130000
H   	   -4.4192460000 	   -0.4230670000 	    0.2545280000
H   	   -3.8200660000 	   -0.8996400000 	   -1.3323140000
