15
tauto -341.878894857
N   	    2.3017520000 	    0.0379190000 	   -0.1725670000
C   	    0.9356050000 	    0.1112890000 	   -0.0000460000
N   	    0.3330270000 	    1.2228510000 	    0.1268420000
C   	   -1.1199690000 	    1.2342520000 	    0.1315160000
C   	   -1.7331110000 	   -0.0679660000 	   -0.3803850000
C   	   -0.9866040000 	   -1.2202610000 	    0.2652160000
O   	    0.4060400000 	   -1.1412090000 	   -0.0438720000
H   	    2.7704160000 	    0.9024110000 	    0.0548460000
H   	    2.7357800000 	   -0.7927310000 	    0.2022910000
H   	   -1.4582310000 	    2.0807200000 	   -0.4776030000
H   	   -1.4709200000 	    1.4327190000 	    1.1546660000
H   	   -1.6221730000 	   -0.1394950000 	   -1.4689390000
H   	   -2.8017890000 	   -0.1279650000 	   -0.1462500000
H   	   -1.3112880000 	   -2.1964690000 	   -0.1027640000
H   	   -1.1090860000 	   -1.1987970000 	    1.3569990000
