19
tauto -460.979584778
O   	   -1.5397740000 	    2.1791920000 	   -0.0000650000
C   	   -1.2947730000 	    0.9873510000 	   -0.0000110000
C   	    0.1028760000 	    0.4731290000 	    0.0000050000
C   	    1.1578590000 	    1.3855070000 	    0.0000190000
C   	    2.4709370000 	    0.9370380000 	    0.0000190000
C   	    2.7302690000 	   -0.4337660000 	    0.0000070000
C   	    1.6840200000 	   -1.3474990000 	   -0.0000120000
C   	    0.3567990000 	   -0.9092380000 	   -0.0000100000
C   	   -0.7579040000 	   -1.8647600000 	   -0.0000300000
C   	   -2.0320400000 	   -1.4690210000 	   -0.0000040000
C   	   -2.4307220000 	   -0.0244790000 	    0.0000640000
H   	    0.9179620000 	    2.4450800000 	    0.0000240000
H   	    3.2920700000 	    1.6486290000 	    0.0000310000
H   	    3.7568910000 	   -0.7917730000 	    0.0000060000
H   	    1.8921020000 	   -2.4154420000 	   -0.0000270000
H   	   -0.5079980000 	   -2.9237540000 	   -0.0000680000
H   	   -2.8329780000 	   -2.2052130000 	   -0.0000200000
H   	   -3.0617910000 	    0.2016490000 	    0.8702930000
H   	   -3.0619860000 	    0.2017070000 	   -0.8700040000
