17
tauto -438.926509488
O   	    2.2678040000 	   -1.5846230000 	   -0.0065940000
C   	    1.5740000000 	   -0.5914140000 	    0.0015490000
C   	    0.1077180000 	   -0.4829510000 	   -0.0223980000
C   	   -0.8692470000 	   -1.4747900000 	   -0.0069280000
C   	   -2.2017590000 	   -1.0921370000 	    0.0153780000
C   	   -2.5336180000 	    0.2715490000 	    0.0227960000
C   	   -1.5677920000 	    1.2687410000 	   -0.0036780000
C   	   -0.2267260000 	    0.8751860000 	   -0.0345710000
N   	    0.9010790000 	    1.6792180000 	   -0.1119490000
C   	    2.0928570000 	    0.8558180000 	    0.0530560000
H   	   -0.5722810000 	   -2.5205060000 	   -0.0020990000
H   	   -2.9897420000 	   -1.8391220000 	    0.0314480000
H   	   -3.5823320000 	    0.5589260000 	    0.0468000000
H   	   -1.8461000000 	    2.3193870000 	   -0.0081290000
H   	    0.8732790000 	    2.5808570000 	    0.3399400000
H   	    2.5877200000 	    1.0197950000 	    1.0191580000
H   	    2.8268730000 	    1.0231110000 	   -0.7419520000
