26
tauto -689.796475007
O   	   -0.4936470000 	    2.8388440000 	   -0.1235690000
C   	    0.2069100000 	    1.8779570000 	   -0.0151150000
C   	   -0.0740050000 	    0.5715340000 	    0.7481930000
C   	   -1.3885900000 	   -0.0500850000 	    0.3036750000
C   	   -1.4350230000 	   -1.1732040000 	   -0.5197970000
C   	   -2.6604220000 	   -1.7003810000 	   -0.9207870000
C   	   -3.8474700000 	   -1.1073440000 	   -0.5065550000
C   	   -3.8059910000 	    0.0204890000 	    0.3096780000
C   	   -2.5840980000 	    0.5453520000 	    0.7121310000
O   	    1.4540410000 	    1.8146800000 	   -0.5930950000
C   	    2.0232040000 	    0.5967010000 	   -0.2801360000
C   	    1.1931670000 	   -0.1968060000 	    0.5013430000
C   	    1.6306770000 	   -1.4481100000 	    0.9067380000
C   	    2.8994880000 	   -1.8758770000 	    0.5111480000
C   	    3.7107060000 	   -1.0591650000 	   -0.2755050000
C   	    3.2829300000 	    0.2035570000 	   -0.6877300000
H   	   -0.1628240000 	    0.8517810000 	    1.8063950000
H   	   -0.5120100000 	   -1.6416970000 	   -0.8513520000
H   	   -2.6831350000 	   -2.5780170000 	   -1.5618580000
H   	   -4.8028620000 	   -1.5207080000 	   -0.8191980000
H   	   -4.7288310000 	    0.4937580000 	    0.6348330000
H   	   -2.5526980000 	    1.4344030000 	    1.3375760000
H   	    0.9949630000 	   -2.0853700000 	    1.5168130000
H   	    3.2584300000 	   -2.8537300000 	    0.8195220000
H   	    4.6952150000 	   -1.4089110000 	   -0.5744700000
H   	    3.9016820000 	    0.8525900000 	   -1.2986300000
