13
tauto -398.603363805
O   	   -2.9307950000 	    0.1856870000 	    0.0000550000
C   	   -1.8638710000 	   -0.6617650000 	    0.0000190000
C   	   -0.6153030000 	   -0.1841080000 	   -0.0000610000
C   	   -0.1881070000 	    1.2156850000 	   -0.0000450000
C   	    1.1515240000 	    1.2620570000 	    0.0000100000
N   	    0.5649150000 	   -0.9389830000 	   -0.0000810000
C   	    1.6894660000 	   -0.1280960000 	    0.0000060000
O   	    2.8413840000 	   -0.5132660000 	    0.0000630000
H   	   -3.7445290000 	   -0.3285860000 	    0.0000190000
H   	   -2.0728450000 	   -1.7296870000 	    0.0000520000
H   	   -0.8891420000 	    2.0410320000 	   -0.0000660000
H   	    1.7953900000 	    2.1318180000 	    0.0000550000
H   	    0.6297680000 	   -1.9437020000 	   -0.0000120000
