14
tauto -324.612682457
C   	   -2.3952040000 	   -0.3902150000 	    0.1262490000
N   	   -1.0360500000 	   -0.0461480000 	   -0.2130450000
C   	    0.0429980000 	   -1.0058830000 	   -0.0671300000
C   	   -0.5155880000 	    1.2062230000 	   -0.0547250000
C   	    0.8359190000 	    1.2422040000 	    0.0498680000
C   	    1.3137550000 	   -0.1351540000 	    0.0198140000
O   	    2.4443360000 	   -0.5785260000 	    0.0525180000
H   	   -2.7257300000 	   -1.2412540000 	   -0.4776560000
H   	   -3.0487710000 	    0.4586000000 	   -0.0958850000
H   	   -2.5094330000 	   -0.6518440000 	    1.1890090000
H   	    0.0978020000 	   -1.6998300000 	   -0.9123930000
H   	   -0.0663680000 	   -1.5887410000 	    0.8577720000
H   	   -1.2016500000 	    2.0494420000 	   -0.0463680000
H   	    1.4605330000 	    2.1218290000 	    0.1122420000
