11
tauto -285.311613117
O   	    2.0801950000 	   -0.0091930000 	   -0.0119570000
C   	    0.8678370000 	    0.0562000000 	    0.0069490000
C   	   -0.0143450000 	    1.2207620000 	    0.0179320000
C   	   -1.2894260000 	    0.7687470000 	    0.0016410000
N   	   -1.3969510000 	   -0.5954310000 	   -0.1016800000
C   	   -0.0666210000 	   -1.1703980000 	    0.0222920000
H   	    0.3121670000 	    2.2509550000 	    0.0183850000
H   	   -2.1994780000 	    1.3604200000 	    0.0310360000
H   	   -2.1923820000 	   -1.0638550000 	    0.3035650000
H   	    0.1719400000 	   -1.8451210000 	   -0.8052330000
H   	    0.0601750000 	   -1.7126980000 	    0.9667830000
