17
tauto -438.951148899
O   	   -3.2785940000 	   -0.1178310000 	   -0.0007080000
C   	   -2.0721720000 	   -0.0236240000 	   -0.0000550000
C   	   -1.2261210000 	    1.2542960000 	    0.0004380000
N   	   -1.1817700000 	   -1.0807280000 	    0.0005220000
C   	    0.1519160000 	   -0.6579160000 	    0.0002260000
C   	    0.1896150000 	    0.7423820000 	    0.0001480000
C   	    1.4085450000 	    1.3946760000 	   -0.0001220000
C   	    2.5859760000 	    0.6399230000 	   -0.0002890000
C   	    2.5291780000 	   -0.7501550000 	   -0.0001780000
C   	    1.3058230000 	   -1.4238470000 	    0.0000960000
H   	   -1.4783370000 	    1.8517580000 	    0.8832630000
H   	   -1.4786410000 	    1.8530690000 	   -0.8813690000
H   	   -1.4954430000 	   -2.0389900000 	   -0.0006060000
H   	    1.4529020000 	    2.4814580000 	   -0.0002270000
H   	    3.5493120000 	    1.1419450000 	   -0.0005190000
H   	    3.4509980000 	   -1.3261220000 	   -0.0003030000
H   	    1.2637860000 	   -2.5097860000 	    0.0001900000
