19
tauto -419.250850625
C   	   -1.6206500000 	    1.6821090000 	   -0.4964070000
C   	   -0.8393940000 	    0.6405290000 	    0.2878450000
N   	   -0.9860530000 	   -0.7252640000 	   -0.1964970000
C   	   -2.0826940000 	   -1.5362800000 	    0.2826070000
N   	    0.2197460000 	   -1.3605300000 	   -0.2285330000
C   	    1.1911510000 	   -0.5238230000 	   -0.0628550000
C   	    2.6339130000 	   -0.8837320000 	   -0.1608550000
C   	    0.6714780000 	    0.8328050000 	    0.2093400000
O   	    1.2832140000 	    1.8706040000 	    0.3389020000
H   	   -2.6995690000 	    1.5611220000 	   -0.3583290000
H   	   -1.3947110000 	    1.5995750000 	   -1.5633240000
H   	   -1.3307200000 	    2.6798560000 	   -0.1534820000
H   	   -1.1100150000 	    0.6794120000 	    1.3573850000
H   	   -3.0285170000 	   -1.0542830000 	    0.0181980000
H   	   -2.0513920000 	   -1.6846830000 	    1.3734530000
H   	   -2.0301360000 	   -2.5096970000 	   -0.2088940000
H   	    2.7456960000 	   -1.9577340000 	   -0.3260140000
H   	    3.1649460000 	   -0.6024050000 	    0.7545360000
H   	    3.1100310000 	   -0.3450810000 	   -0.9875820000
