20
tauto -478.22714032
C   	   -1.8211940000 	   -2.1809390000 	    0.1748140000
N   	   -1.2684520000 	   -0.9124050000 	   -0.2333100000
C   	   -2.0370640000 	    0.3037240000 	   -0.0179860000
C   	    0.0791890000 	   -0.6253700000 	   -0.1077500000
C   	    1.1610740000 	   -1.5126550000 	   -0.0771640000
C   	    2.4392070000 	   -0.9733070000 	    0.0036080000
C   	    2.6694370000 	    0.4084560000 	    0.0615300000
C   	    1.5925170000 	    1.2830580000 	    0.0494500000
C   	    0.3078880000 	    0.7557050000 	   -0.0252790000
C   	   -0.9958920000 	    1.4323840000 	   -0.0072110000
O   	   -1.2434450000 	    2.6182980000 	    0.0263520000
H   	   -2.8475350000 	   -2.2613590000 	   -0.1951910000
H   	   -1.8315340000 	   -2.3094130000 	    1.2692030000
H   	   -1.2464790000 	   -2.9995890000 	   -0.2674250000
H   	   -2.5529720000 	    0.2920870000 	    0.9544770000
H   	   -2.7861030000 	    0.4665330000 	   -0.8007350000
H   	    1.0179770000 	   -2.5884050000 	   -0.1191500000
H   	    3.2896240000 	   -1.6511760000 	    0.0243760000
H   	    3.6859790000 	    0.7852310000 	    0.1240140000
H   	    1.7267920000 	    2.3601980000 	    0.1087140000
