29
tauto -783.232523594
O   	   -1.3003100000 	    2.7969700000 	   -0.1290120000
C   	   -0.6919000000 	    1.8119150000 	    0.1596800000
O   	    0.6293550000 	    1.6206340000 	   -0.1911810000
C   	    0.9941070000 	    0.3948680000 	    0.3311440000
C   	    2.3814750000 	   -0.0214500000 	    0.0821640000
C   	    2.8280470000 	   -1.2343170000 	    0.6131070000
C   	    4.1330620000 	   -1.6471440000 	    0.3849220000
C   	    4.9936030000 	   -0.8536990000 	   -0.3723710000
C   	    4.5481140000 	    0.3541830000 	   -0.9005480000
C   	    3.2420640000 	    0.7745050000 	   -0.6747490000
N   	    0.1060970000 	   -0.2487140000 	    0.9728480000
C   	   -1.0971060000 	    0.5661970000 	    0.9459480000
C   	   -2.3093540000 	   -0.1325780000 	    0.3489460000
C   	   -3.4952290000 	    0.5811510000 	    0.1662390000
C   	   -4.6128730000 	   -0.0501450000 	   -0.3668800000
C   	   -4.5566970000 	   -1.3970160000 	   -0.7173330000
C   	   -3.3759490000 	   -2.1078850000 	   -0.5335850000
C   	   -2.2530070000 	   -1.4787630000 	   -0.0023290000
H   	    2.1411790000 	   -1.8363270000 	    1.2011470000
H   	    4.4825070000 	   -2.5892250000 	    0.7984800000
H   	    6.0153740000 	   -1.1792300000 	   -0.5499580000
H   	    5.2185990000 	    0.9722050000 	   -1.4912620000
H   	    2.8859600000 	    1.7150670000 	   -1.0836460000
H   	   -1.3383910000 	    0.8849220000 	    1.9695650000
H   	   -3.5348010000 	    1.6366070000 	    0.4234540000
H   	   -5.5315100000 	    0.5128810000 	   -0.5103860000
H   	   -5.4320510000 	   -1.8889050000 	   -1.1336810000
H   	   -3.3240770000 	   -3.1593350000 	   -0.8047590000
H   	   -1.3279720000 	   -2.0274180000 	    0.1465250000
