28
tauto -391.810148682
C   	    2.4195630000 	    0.0928420000 	    1.2334050000
C   	    1.7725240000 	    0.1782520000 	   -0.1553800000
C   	    2.4326290000 	   -0.8143800000 	   -1.1206910000
C   	    0.2637260000 	   -0.0129130000 	   -0.0710250000
C   	   -0.6078390000 	    1.0076350000 	   -0.0762590000
C   	   -0.2264730000 	    2.4681420000 	   -0.1226200000
C   	   -2.1089930000 	    0.7980100000 	   -0.0289910000
C   	   -2.5399130000 	   -0.6436680000 	   -0.2806790000
C   	   -1.6497070000 	   -1.5894780000 	    0.5170420000
C   	   -0.2033980000 	   -1.4528670000 	    0.0487200000
H   	    3.5040060000 	    0.2422590000 	    1.1685250000
H   	    2.2479710000 	   -0.8885150000 	    1.6927390000
H   	    2.0077900000 	    0.8527930000 	    1.9066060000
H   	    1.9744910000 	    1.1783260000 	   -0.5532560000
H   	    2.3562570000 	   -1.8462010000 	   -0.7587630000
H   	    3.4983270000 	   -0.5837380000 	   -1.2313420000
H   	    1.9722050000 	   -0.7694810000 	   -2.1141460000
H   	    0.8212300000 	    2.6602160000 	    0.1182460000
H   	   -0.8365190000 	    3.0337580000 	    0.5932690000
H   	   -0.4308270000 	    2.8965740000 	   -1.1131450000
H   	   -2.5807560000 	    1.4687950000 	   -0.7614160000
H   	   -2.4795420000 	    1.1318150000 	    0.9531560000
H   	   -2.4430050000 	   -0.8755400000 	   -1.3503240000
H   	   -3.5963960000 	   -0.7760500000 	   -0.0193350000
H   	   -1.9824330000 	   -2.6289400000 	    0.4117250000
H   	   -1.7180210000 	   -1.3369730000 	    1.5842940000
H   	   -0.0889640000 	   -1.9545190000 	   -0.9241110000
H   	    0.4614640000 	   -1.9940310000 	    0.7361550000
