22
tauto -458.60803031
C   	   -3.0437750000 	   -0.4961700000 	   -0.6351020000
C   	   -2.1177750000 	   -0.7004210000 	    0.5694490000
C   	   -0.6789300000 	   -0.5021220000 	    0.2041570000
N   	   -0.1411140000 	    0.7891270000 	    0.0952580000
C   	   -0.7573770000 	    2.0506180000 	    0.4349020000
N   	    0.1298740000 	   -1.4506910000 	   -0.0788270000
C   	    1.4035450000 	   -0.8280450000 	   -0.4324200000
C   	    2.5584780000 	   -1.3244660000 	    0.4295130000
C   	    1.1868150000 	    0.6738000000 	   -0.2783630000
O   	    1.9704980000 	    1.5878660000 	   -0.4209310000
H   	   -4.0869940000 	   -0.6648350000 	   -0.3515290000
H   	   -2.7859870000 	   -1.2001070000 	   -1.4321670000
H   	   -2.9660770000 	    0.5177220000 	   -1.0429160000
H   	   -2.2120680000 	   -1.7228780000 	    0.9443320000
H   	   -2.3958710000 	   -0.0189790000 	    1.3827650000
H   	   -1.6417070000 	    2.2435290000 	   -0.1805560000
H   	   -0.0098870000 	    2.8234880000 	    0.2404130000
H   	   -1.0400620000 	    2.0869810000 	    1.4925350000
H   	    1.6197620000 	   -1.0379680000 	   -1.4883700000
H   	    2.3453430000 	   -1.1513120000 	    1.4893400000
H   	    3.4758780000 	   -0.7898160000 	    0.1665060000
H   	    2.7064680000 	   -2.3969710000 	    0.2792670000
