15
tauto -399.788828447
C   	    2.3022870000 	    0.2278020000 	    0.5850830000
C   	    1.2023410000 	   -0.0851230000 	   -0.4130950000
O   	    0.7306660000 	   -1.4277260000 	   -0.2476880000
N   	   -0.6231680000 	   -1.4363510000 	    0.0041690000
C   	   -1.1011520000 	   -0.2449180000 	    0.0269690000
C   	   -2.5341250000 	    0.0653420000 	    0.2870450000
C   	   -0.0385270000 	    0.7601540000 	   -0.2134540000
O   	   -0.1305010000 	    1.9653150000 	   -0.2234940000
H   	    3.1739850000 	   -0.4075260000 	    0.4102320000
H   	    1.9456550000 	    0.0614010000 	    1.6057840000
H   	    2.5926760000 	    1.2775360000 	    0.4796140000
H   	    1.5550890000 	    0.0197080000 	   -1.4465200000
H   	   -3.0921890000 	   -0.8520010000 	    0.4854090000
H   	   -2.9749450000 	    0.5764200000 	   -0.5749050000
H   	   -2.6243480000 	    0.7386670000 	    1.1453740000
