29
tauto -783.227867227
O   	    1.4558600000 	    2.8502060000 	   -0.1448800000
C   	    0.7246300000 	    1.9237060000 	    0.0922720000
N   	   -0.6097910000 	    1.7721960000 	   -0.3130530000
C   	   -1.0039360000 	    0.6544620000 	    0.1943180000
C   	   -2.3434900000 	    0.0754080000 	    0.0403180000
C   	   -2.6700760000 	   -1.1396740000 	    0.6464280000
C   	   -3.9441260000 	   -1.6687040000 	    0.4827750000
C   	   -4.8875000000 	   -0.9874610000 	   -0.2825120000
C   	   -4.5609400000 	    0.2253200000 	   -0.8863390000
C   	   -3.2899330000 	    0.7600570000 	   -0.7263930000
O   	   -0.1294830000 	   -0.0565170000 	    0.9354410000
C   	    1.0976700000 	    0.6808660000 	    0.9230230000
C   	    2.2401020000 	   -0.1232150000 	    0.3453680000
C   	    3.4782040000 	    0.4992910000 	    0.1751470000
C   	    4.5499000000 	   -0.2176520000 	   -0.3431430000
C   	    4.3951010000 	   -1.5569180000 	   -0.6930800000
C   	    3.1610210000 	   -2.1748190000 	   -0.5252320000
C   	    2.0835290000 	   -1.4613230000 	   -0.0064010000
H   	   -1.9265970000 	   -1.6608190000 	    1.2420680000
H   	   -4.2020070000 	   -2.6135910000 	    0.9529070000
H   	   -5.8831960000 	   -1.4046320000 	   -0.4097600000
H   	   -5.2992080000 	    0.7543630000 	   -1.4824610000
H   	   -3.0092730000 	    1.7032010000 	   -1.1860070000
H   	    1.3117220000 	    0.9837270000 	    1.9540730000
H   	    3.5890730000 	    1.5510720000 	    0.4251330000
H   	    5.5098200000 	    0.2738820000 	   -0.4778620000
H   	    5.2350740000 	   -2.1154170000 	   -1.0978780000
H   	    3.0314110000 	   -3.2190540000 	   -0.7979630000
H   	    1.1197700000 	   -1.9436790000 	    0.1253430000
