15
tauto -399.855690874
C   	   -1.7165580000 	   -1.4359360000 	   -0.4527200000
C   	   -0.8363410000 	   -0.6143710000 	    0.4661270000
O   	    0.5425140000 	   -1.0097240000 	    0.3649780000
C   	    1.2169430000 	    0.0954700000 	   -0.0048990000
C   	    2.6835670000 	   -0.0839130000 	   -0.1686230000
N   	    0.5644160000 	    1.1900540000 	   -0.1851010000
C   	   -0.7814540000 	    0.8675900000 	    0.0790920000
O   	   -1.7335570000 	    1.6002810000 	    0.0017040000
H   	   -1.7258250000 	   -2.4876690000 	   -0.1549010000
H   	   -1.3632550000 	   -1.3625770000 	   -1.4859100000
H   	   -2.7345140000 	   -1.0383490000 	   -0.4062000000
H   	   -1.1350600000 	   -0.7213020000 	    1.5141090000
H   	    3.1208230000 	   -0.4293850000 	    0.7730370000
H   	    3.1381250000 	    0.8606280000 	   -0.4662900000
H   	    2.8801910000 	   -0.8492230000 	   -0.9254590000
