15
tauto -250.630974011
C   	   -2.2091200000 	   -0.0316020000 	   -0.0433970000
C   	   -0.7131110000 	   -0.0740560000 	    0.0023890000
N   	   -0.0573710000 	   -1.1645760000 	   -0.0241080000
C   	    1.3729530000 	   -0.8622880000 	    0.0759280000
C   	    1.5327970000 	    0.6578210000 	   -0.1473150000
C   	    0.1184560000 	    1.1904900000 	    0.1203560000
H   	   -2.6126850000 	   -1.0440230000 	   -0.1093440000
H   	   -2.5530430000 	    0.5512520000 	   -0.9061590000
H   	   -2.6080180000 	    0.4568680000 	    0.8539100000
H   	    1.9288410000 	   -1.4624540000 	   -0.6519050000
H   	    1.7171430000 	   -1.1718030000 	    1.0715880000
H   	    1.8206840000 	    0.8584160000 	   -1.1847480000
H   	    2.2929760000 	    1.1050390000 	    0.4990940000
H   	   -0.2036600000 	    1.9675860000 	   -0.5818850000
H   	    0.0075030000 	    1.6089560000 	    1.1304390000
