23
tauto -459.549539149
C   	   -1.7553320000 	    1.4242170000 	   -0.6840480000
C   	   -1.7076810000 	    0.2625570000 	    0.2828130000
C   	   -0.5808870000 	    0.2748770000 	    1.2966160000
C   	    0.7558820000 	    0.0609430000 	    0.6217000000
N   	    1.4717760000 	    1.1506030000 	    0.3256270000
C   	    2.6416140000 	    0.9781410000 	   -0.2953160000
C   	    3.1546060000 	   -0.2633140000 	   -0.6485470000
C   	    2.4004050000 	   -1.3931660000 	   -0.3461270000
C   	    1.1809080000 	   -1.2293350000 	    0.2944540000
N   	   -2.5172150000 	   -0.7182930000 	    0.3070300000
C   	   -3.5896490000 	   -0.7384130000 	   -0.6741980000
H   	   -0.8535830000 	    2.0371380000 	   -0.6062670000
H   	   -2.6263680000 	    2.0575140000 	   -0.4719790000
H   	   -1.8550210000 	    1.0756180000 	   -1.7182430000
H   	   -0.7775600000 	   -0.5162600000 	    2.0249930000
H   	   -0.5516910000 	    1.2426850000 	    1.8091990000
H   	    3.1970860000 	    1.8880480000 	   -0.5185580000
H   	    4.1162530000 	   -0.3399640000 	   -1.1470460000
H   	    2.7586570000 	   -2.3861490000 	   -0.6064380000
H   	    0.5510970000 	   -2.0799040000 	    0.5417760000
H   	   -4.2746210000 	   -1.5578850000 	   -0.4411600000
H   	   -3.1987820000 	   -0.9030910000 	   -1.6881300000
H   	   -4.1665880000 	    0.1970360000 	   -0.6908370000
