18
tauto -289.931792602
C   	   -2.4258130000 	   -0.0030410000 	   -0.2793250000
C   	   -0.9657210000 	   -0.1117550000 	    0.0588470000
N   	   -0.3840280000 	   -1.2434450000 	   -0.0101420000
C   	    1.0337840000 	   -1.2225390000 	    0.3355720000
C   	    1.7775650000 	   -0.1243800000 	   -0.4324440000
C   	    1.1483880000 	    1.2591570000 	   -0.1755980000
C   	   -0.2342310000 	    1.1370890000 	    0.4998330000
H   	   -2.8211970000 	   -0.9855910000 	   -0.5448080000
H   	   -2.5775610000 	    0.6889140000 	   -1.1170630000
H   	   -2.9902540000 	    0.3967970000 	    0.5723230000
H   	    1.4623140000 	   -2.2045220000 	    0.1125740000
H   	    1.1489200000 	   -1.0629130000 	    1.4197210000
H   	    1.7169200000 	   -0.3705590000 	   -1.4986560000
H   	    2.8398320000 	   -0.1312920000 	   -0.1646240000
H   	    1.0408830000 	    1.7996060000 	   -1.1219520000
H   	    1.7991180000 	    1.8714550000 	    0.4581170000
H   	   -0.8389280000 	    2.0331220000 	    0.3256630000
H   	   -0.0956860000 	    1.0619130000 	    1.5883950000
