12
tauto -356.664046808
C   	    1.7732840000 	   -0.9838250000 	    0.0000580000
N   	    0.4092600000 	   -0.5055300000 	   -0.0000150000
N   	   -0.6389960000 	   -1.3587000000 	   -0.0000230000
N   	   -1.7183590000 	   -0.6504090000 	   -0.0000570000
C   	   -1.3987820000 	    0.6730510000 	   -0.0000830000
C   	   -0.0282680000 	    0.7666530000 	    0.0000210000
O   	    0.8732900000 	    1.7687870000 	    0.0000710000
H   	    1.7247710000 	   -2.0729750000 	   -0.0008370000
H   	    2.2992490000 	   -0.6350940000 	    0.8924350000
H   	    2.2997850000 	   -0.6336380000 	   -0.8914260000
H   	   -2.1514220000 	    1.4484480000 	   -0.0001390000
H   	    0.4005530000 	    2.6101630000 	    0.0000840000
