26
tauto -502.706771396
C   	   -2.8687180000 	   -0.7551120000 	    0.8418140000
C   	   -2.0435340000 	    0.1222500000 	   -0.0844910000
C   	   -0.5404950000 	    0.0346300000 	   -0.0428270000
C   	    0.1972480000 	    1.2310250000 	    0.0463240000
C   	   -0.4641730000 	    2.5884770000 	    0.0947520000
C   	    1.5874360000 	    1.1597800000 	    0.0974200000
C   	    2.2681550000 	   -0.0534060000 	    0.0304970000
C   	    3.7730820000 	   -0.0997790000 	    0.1043690000
C   	    1.5192350000 	   -1.2197630000 	   -0.0920900000
C   	    0.1253930000 	   -1.2005160000 	   -0.1193120000
C   	   -0.6053020000 	   -2.5153710000 	   -0.2802270000
O   	   -2.6027070000 	    0.9199610000 	   -0.8114650000
H   	   -2.3030290000 	   -1.0938500000 	    1.7141080000
H   	   -3.2331610000 	   -1.6349540000 	    0.3008410000
H   	   -3.7419030000 	   -0.1805950000 	    1.1611040000
H   	   -1.2784170000 	    2.6227200000 	    0.8253950000
H   	   -0.9038190000 	    2.8425920000 	   -0.8730700000
H   	    0.2677150000 	    3.3563710000 	    0.3622720000
H   	    2.1564810000 	    2.0848180000 	    0.1812090000
H   	    4.2226640000 	    0.7684780000 	   -0.3879170000
H   	    4.1686400000 	   -1.0036540000 	   -0.3692400000
H   	    4.1125030000 	   -0.0976320000 	    1.1471970000
H   	    2.0333710000 	   -2.1764900000 	   -0.1741700000
H   	    0.0937050000 	   -3.2989160000 	   -0.5863950000
H   	   -1.3899520000 	   -2.4593770000 	   -1.0420640000
H   	   -1.0731050000 	   -2.8424920000 	    0.6550800000
