20
tauto -382.293360342
C   	    2.4032580000 	    0.2800820000 	    0.9021340000
C   	    1.5725000000 	   -0.1383560000 	   -0.3205500000
C   	    1.5722230000 	   -1.6560030000 	   -0.4792330000
C   	    0.1793140000 	    0.4463930000 	   -0.2151120000
C   	    0.0035400000 	    1.9314050000 	   -0.3896160000
N   	   -0.7959820000 	   -0.3390850000 	    0.0373180000
N   	   -2.0440210000 	    0.2563240000 	    0.1690230000
O   	   -3.0001040000 	   -0.7565400000 	    0.3555110000
H   	    3.4353710000 	   -0.0727910000 	    0.8020330000
H   	    1.9787990000 	   -0.1579440000 	    1.8125840000
H   	    2.4328290000 	    1.3676130000 	    1.0323750000
H   	    2.0377320000 	    0.3099490000 	   -1.2117490000
H   	    1.1257440000 	   -2.1360170000 	    0.3967680000
H   	    2.5981510000 	   -2.0235050000 	   -0.5914380000
H   	    0.9949150000 	   -1.9657230000 	   -1.3557550000
H   	    0.9624860000 	    2.4549330000 	   -0.4141500000
H   	   -0.6145640000 	    2.3336660000 	    0.4212550000
H   	   -0.5180810000 	    2.1528530000 	   -1.3315110000
H   	   -2.2944280000 	    0.7123450000 	   -0.7125330000
H   	   -2.6431120000 	   -1.5248550000 	   -0.1220820000
