30
tauto -763.380699387
O   	   -0.4518760000 	    2.5870910000 	    0.2182290000
C   	    0.3017400000 	    1.6277590000 	    0.2512620000
N   	    1.5242820000 	    1.6336680000 	   -0.3728050000
C   	    2.4175560000 	    0.5748840000 	   -0.3407330000
C   	    3.6534810000 	    0.6259000000 	   -0.9924000000
C   	    4.5040040000 	   -0.4634860000 	   -0.9182820000
C   	    4.1383420000 	   -1.6089140000 	   -0.2002390000
C   	    2.9145440000 	   -1.6553560000 	    0.4419700000
C   	    2.0371560000 	   -0.5657670000 	    0.3804370000
N   	    0.8077590000 	   -0.6437760000 	    1.0331070000
C   	   -0.0006730000 	    0.3532650000 	    0.9754410000
C   	   -1.3551000000 	    0.2671130000 	    1.6271680000
C   	   -2.4160040000 	   -0.1323730000 	    0.6170070000
C   	   -2.6388000000 	   -1.4826730000 	    0.3423110000
C   	   -3.5940530000 	   -1.8671510000 	   -0.5926580000
C   	   -4.3348660000 	   -0.9014710000 	   -1.2687620000
C   	   -4.1111130000 	    0.4468100000 	   -1.0069840000
C   	   -3.1550890000 	    0.8307670000 	   -0.0709110000
H   	    1.7577740000 	    2.4817780000 	   -0.8737660000
H   	    3.9352200000 	    1.5170780000 	   -1.5487930000
H   	    5.4650340000 	   -0.4246940000 	   -1.4238790000
H   	    4.8148290000 	   -2.4569760000 	   -0.1496690000
H   	    2.5962730000 	   -2.5270280000 	    1.0064020000
H   	   -1.6043890000 	    1.2371880000 	    2.0669180000
H   	   -1.2930860000 	   -0.4804870000 	    2.4226480000
H   	   -2.0543160000 	   -2.2359880000 	    0.8673520000
H   	   -3.7616420000 	   -2.9227650000 	   -0.7920510000
H   	   -5.0836450000 	   -1.1996500000 	   -1.9983610000
H   	   -4.6831950000 	    1.2062570000 	   -1.5344640000
H   	   -2.9648970000 	    1.8834730000 	    0.1219520000
