17
tauto -400.98443666
C   	    2.8108880000 	   -0.0426740000 	    0.0491620000
C   	    1.5058320000 	   -0.8278770000 	    0.0247350000
C   	    0.2578620000 	    0.0213480000 	   -0.0031010000
C   	   -1.0462030000 	   -0.7614880000 	   -0.0115950000
C   	   -2.3878270000 	   -0.0891750000 	    0.1262050000
O   	   -0.9602220000 	   -1.9689950000 	   -0.1188430000
N   	    0.4221460000 	    1.2893860000 	   -0.0279480000
O   	   -0.7395360000 	    2.0332330000 	   -0.0701750000
H   	    3.6601920000 	   -0.7327010000 	    0.0717240000
H   	    2.8694090000 	    0.6054790000 	    0.9287650000
H   	    2.9078360000 	    0.5953710000 	   -0.8341550000
H   	    1.4393500000 	   -1.4944130000 	    0.8933620000
H   	    1.4714150000 	   -1.4972890000 	   -0.8428160000
H   	   -2.4106330000 	    0.5674210000 	    1.0001910000
H   	   -3.1480530000 	   -0.8687230000 	    0.2060420000
H   	   -2.5862870000 	    0.5456730000 	   -0.7421930000
H   	   -0.4034960000 	    2.9387750000 	   -0.0855810000
