22
tauto -442.329330367
C   	    3.3797320000 	   -0.8284610000 	   -0.0366650000
C   	    1.9740020000 	   -0.3077800000 	    0.0389960000
C   	    1.7835510000 	    1.1466280000 	    0.4244250000
C   	    0.5543340000 	    1.7280480000 	   -0.2700480000
N   	    1.0026620000 	   -1.1037880000 	   -0.1943360000
C   	   -0.3187720000 	   -0.5972130000 	   -0.0916900000
C   	   -0.6054810000 	    0.7751830000 	   -0.1225010000
C   	   -1.9294140000 	    1.1947570000 	   -0.0410690000
C   	   -2.9633340000 	    0.2699320000 	    0.0793500000
C   	   -2.6744630000 	   -1.0916560000 	    0.1130190000
C   	   -1.3559860000 	   -1.5219660000 	    0.0213630000
H   	    3.9070510000 	   -0.6437730000 	    0.9079490000
H   	    3.9416410000 	   -0.3093270000 	   -0.8229060000
H   	    3.3724270000 	   -1.9000130000 	   -0.2448170000
H   	    2.6856630000 	    1.7218570000 	    0.1895460000
H   	    1.6547750000 	    1.1906910000 	    1.5165010000
H   	    0.7739200000 	    1.8728420000 	   -1.3378390000
H   	    0.3041760000 	    2.7128390000 	    0.1388180000
H   	   -2.1520750000 	    2.2603470000 	   -0.0668300000
H   	   -3.9925560000 	    0.6131800000 	    0.1471080000
H   	   -3.4770990000 	   -1.8187740000 	    0.2060450000
H   	   -1.1015770000 	   -2.5781780000 	    0.0356840000
