28
tauto -683.332535637
C   	    1.7632730000 	    1.9816120000 	    1.4045530000
C   	    1.7600580000 	    1.5331630000 	   -0.0547940000
C   	    0.3498020000 	    1.3510090000 	   -0.6313780000
N   	    2.4181840000 	    0.2480890000 	   -0.1913560000
N   	    3.7492190000 	    0.0579680000 	   -0.2199440000
C   	    3.8301040000 	   -1.2629890000 	   -0.1955640000
N   	    2.6491030000 	   -1.9263640000 	   -0.1278770000
C   	    1.7764560000 	   -0.9354730000 	   -0.1163700000
N   	    0.3958030000 	   -1.0353190000 	   -0.0115030000
C   	   -0.2897800000 	    0.0307610000 	   -0.2210960000
C   	   -1.7693980000 	   -0.0610760000 	   -0.1056680000
C   	   -2.6140570000 	    0.9507720000 	   -0.5717710000
C   	   -3.9955320000 	    0.8240940000 	   -0.4638750000
C   	   -4.5478790000 	   -0.3109330000 	    0.1187710000
C   	   -3.7136750000 	   -1.3259080000 	    0.5847230000
C   	   -2.3368480000 	   -1.2052190000 	    0.4692530000
H   	    1.3204180000 	    2.9787340000 	    1.4987570000
H   	    2.7888800000 	    2.0167130000 	    1.7824370000
H   	    1.1881030000 	    1.2859390000 	    2.0259470000
H   	    2.3188780000 	    2.2488370000 	   -0.6644710000
H   	    0.3922560000 	    1.3684260000 	   -1.7294930000
H   	   -0.2702050000 	    2.1950810000 	   -0.3192200000
H   	    4.7869100000 	   -1.7675390000 	   -0.2301600000
H   	   -2.2056490000 	    1.8422790000 	   -1.0399000000
H   	   -4.6399940000 	    1.6157960000 	   -0.8366120000
H   	   -5.6267410000 	   -0.4072060000 	    0.2094200000
H   	   -4.1406170000 	   -2.2160770000 	    1.0389770000
H   	   -1.6735540000 	   -1.9904800000 	    0.8183690000
