16
tauto -434.095423475
C   	    2.9236920000 	   -0.3629520000 	    0.7102960000
C   	    2.1139700000 	   -0.3897670000 	   -0.5916230000
C   	    0.6770520000 	   -0.0243160000 	   -0.3390820000
C   	    0.3280140000 	    1.3689250000 	   -0.1697530000
N   	   -0.8886830000 	    1.7330220000 	    0.0816950000
N   	   -1.7712790000 	    0.7444870000 	    0.1751590000
N   	   -0.2021360000 	   -0.9720030000 	   -0.2441510000
C   	   -1.5264150000 	   -0.6275890000 	    0.0313180000
O   	   -2.4349040000 	   -1.4182910000 	    0.1466020000
H   	    3.9677590000 	   -0.6261730000 	    0.5171980000
H   	    2.5163840000 	   -1.0809660000 	    1.4289470000
H   	    2.9071120000 	    0.6295640000 	    1.1746790000
H   	    2.1338310000 	   -1.3907360000 	   -1.0302310000
H   	    2.5469740000 	    0.3113780000 	   -1.3158520000
H   	    1.0685950000 	    2.1582850000 	   -0.2538430000
H   	   -2.7246150000 	    1.0206240000 	    0.3704300000
