32
tauto -797.830304678
C   	    2.6804090000 	    1.8702420000 	    1.4782300000
C   	    2.6777850000 	    1.4589150000 	    0.0078990000
C   	    1.2722480000 	    1.4062730000 	   -0.6053680000
N   	    3.2339050000 	    0.1291340000 	   -0.1470550000
N   	    4.5467480000 	   -0.1673110000 	   -0.1482830000
C   	    4.5197490000 	   -1.4902550000 	   -0.1569040000
N   	    3.2879950000 	   -2.0576870000 	   -0.1360230000
C   	    2.4968810000 	   -0.9999090000 	   -0.1193560000
N   	    1.1113010000 	   -0.9916140000 	   -0.0534760000
C   	    0.5165080000 	    0.1318440000 	   -0.2503690000
C   	   -0.9631130000 	    0.1578700000 	   -0.1848480000
C   	   -1.7192430000 	    1.2690720000 	   -0.5854250000
C   	   -3.1011440000 	    1.2491250000 	   -0.5327070000
C   	   -1.6476860000 	   -0.9733640000 	    0.2686960000
C   	   -3.0334680000 	   -1.0054350000 	    0.3362300000
C   	   -3.7698060000 	    0.1121270000 	   -0.0675980000
O   	   -5.1210210000 	    0.1902620000 	   -0.0482410000
C   	   -5.8423950000 	   -0.9379600000 	    0.4050670000
H   	    2.3173810000 	    2.8975550000 	    1.5888370000
H   	    3.6956700000 	    1.8120210000 	    1.8804830000
H   	    2.0358540000 	    1.2082820000 	    2.0675790000
H   	    3.3068600000 	    2.1422710000 	   -0.5697120000
H   	    1.3432010000 	    1.4505360000 	   -1.7011990000
H   	    0.7167840000 	    2.2902970000 	   -0.2830990000
H   	    5.4338010000 	   -2.0694450000 	   -0.1810280000
H   	   -1.2336570000 	    2.1649550000 	   -0.9625740000
H   	   -3.6913850000 	    2.1040000000 	   -0.8481570000
H   	   -1.0668540000 	   -1.8400090000 	    0.5695420000
H   	   -3.5262310000 	   -1.9005120000 	    0.7004390000
H   	   -6.8971670000 	   -0.6713290000 	    0.3270240000
H   	   -5.6029770000 	   -1.1720370000 	    1.4499100000
H   	   -5.6431040000 	   -1.8175880000 	   -0.2195330000
