22
tauto -442.325595703
C   	    1.8322320000 	    2.1541180000 	    0.2668110000
C   	    1.3892450000 	    0.7338180000 	    0.0282660000
N   	    2.2902000000 	   -0.1509010000 	   -0.1581500000
C   	    1.8539700000 	   -1.5170470000 	   -0.4307670000
C   	    0.6059370000 	   -1.9281160000 	    0.3437210000
C   	   -0.4763970000 	   -0.8989930000 	    0.1458510000
C   	   -0.0733970000 	    0.4367170000 	    0.0044870000
C   	   -1.0379670000 	    1.4342300000 	   -0.1503760000
C   	   -2.3904100000 	    1.1112480000 	   -0.1734320000
C   	   -2.7871250000 	   -0.2152730000 	   -0.0332960000
C   	   -1.8311810000 	   -1.2140090000 	    0.1283130000
H   	    2.9201540000 	    2.1757930000 	    0.3492120000
H   	    1.3867570000 	    2.5621770000 	    1.1811890000
H   	    1.5316360000 	    2.8046750000 	   -0.5634140000
H   	    2.6862890000 	   -2.1891930000 	   -0.1992470000
H   	    1.6685640000 	   -1.6019360000 	   -1.5120580000
H   	    0.8513190000 	   -1.9959590000 	    1.4134900000
H   	    0.2650170000 	   -2.9210580000 	    0.0296040000
H   	   -0.7339450000 	    2.4721880000 	   -0.2593230000
H   	   -3.1336800000 	    1.8941060000 	   -0.2992690000
H   	   -3.8431880000 	   -0.4728530000 	   -0.0504750000
H   	   -2.1397730000 	   -2.2517850000 	    0.2398790000
