34
tauto -470.39945116
C   	   -3.0937870000 	    0.0485490000 	   -0.8585760000
C   	   -2.1684650000 	   -0.0693250000 	    0.3607940000
C   	   -2.5302740000 	   -1.3118170000 	    1.1849980000
C   	   -0.6980330000 	    0.0101990000 	   -0.0762960000
C   	   -0.0744780000 	    1.1999730000 	   -0.1749560000
C   	   -0.7230500000 	    2.5261590000 	    0.1682600000
C   	    1.3608190000 	    1.4143230000 	   -0.6359050000
C   	    2.4232360000 	    1.0787110000 	    0.4239400000
C   	    2.3302130000 	   -0.3313890000 	    1.0029170000
C   	    2.4141480000 	   -1.4699580000 	   -0.0176370000
C   	    1.2550370000 	   -1.5840960000 	   -1.0258830000
C   	   -0.1434650000 	   -1.3663570000 	   -0.4356640000
H   	   -4.1477240000 	   -0.0016250000 	   -0.5590290000
H   	   -2.9131910000 	   -0.7649280000 	   -1.5724490000
H   	   -2.9310070000 	    0.9954390000 	   -1.3847350000
H   	   -2.3805360000 	    0.7818970000 	    1.0133900000
H   	   -2.4952930000 	   -2.2330560000 	    0.5931120000
H   	   -3.5517560000 	   -1.2102180000 	    1.5690940000
H   	   -1.8622160000 	   -1.4343240000 	    2.0453990000
H   	   -1.7079360000 	    2.4596390000 	    0.6311900000
H   	   -0.8276590000 	    3.1344630000 	   -0.7402100000
H   	   -0.0736380000 	    3.0946440000 	    0.8473360000
H   	    1.4786000000 	    2.4732030000 	   -0.8989220000
H   	    1.5724900000 	    0.8713360000 	   -1.5573840000
H   	    2.3439960000 	    1.8007480000 	    1.2485930000
H   	    3.4166120000 	    1.2281420000 	   -0.0222150000
H   	    1.3960720000 	   -0.4244960000 	    1.5707400000
H   	    3.1415580000 	   -0.4612750000 	    1.7311580000
H   	    2.4600170000 	   -2.4119340000 	    0.5460570000
H   	    3.3634970000 	   -1.4019760000 	   -0.5674580000
H   	    1.2704760000 	   -2.6083660000 	   -1.4211560000
H   	    1.4117770000 	   -0.9467950000 	   -1.8990280000
H   	   -0.2100430000 	   -1.9944100000 	    0.4648430000
H   	   -0.8655000000 	   -1.8159460000 	   -1.1342760000
