20
tauto -441.126682802
C   	   -1.9685930000 	    2.0301720000 	   -0.0000360000
C   	   -1.4163230000 	    0.6280500000 	   -0.0000140000
N   	   -2.2906810000 	   -0.3500780000 	   -0.0000020000
C   	   -1.8336260000 	   -1.6327220000 	    0.0000230000
C   	   -0.5123530000 	   -1.9717110000 	    0.0000120000
C   	    0.4607310000 	   -0.9376860000 	    0.0000000000
C   	    1.8568620000 	   -1.1939980000 	   -0.0000290000
C   	    2.7522470000 	   -0.1578330000 	   -0.0000270000
C   	    2.2958250000 	    1.1822140000 	    0.0000210000
C   	    0.9528620000 	    1.4548720000 	    0.0000430000
C   	    0.0015630000 	    0.4006110000 	    0.0000130000
H   	   -3.0584790000 	    1.9774870000 	   -0.0003520000
H   	   -1.6409740000 	    2.5893320000 	   -0.8841200000
H   	   -1.6414950000 	    2.5891410000 	    0.8843660000
H   	   -2.6063890000 	   -2.3985850000 	    0.0000430000
H   	   -0.2021040000 	   -3.0135860000 	    0.0000190000
H   	    2.2014530000 	   -2.2258530000 	   -0.0000470000
H   	    3.8203660000 	   -0.3598700000 	   -0.0000630000
H   	    3.0173910000 	    1.9948250000 	    0.0000430000
H   	    0.6098330000 	    2.4858430000 	    0.0000980000
