22
tauto -442.329330367
C   	    3.3797250000 	   -0.8284670000 	   -0.0366660000
C   	    1.9740000000 	   -0.3077870000 	    0.0389940000
C   	    1.7835730000 	    1.1466290000 	    0.4244010000
C   	    0.5543320000 	    1.7280480000 	   -0.2700410000
N   	    1.0026570000 	   -1.1037950000 	   -0.1943150000
C   	   -0.3187750000 	   -0.5972130000 	   -0.0916810000
C   	   -0.6054810000 	    0.7751850000 	   -0.1224900000
C   	   -1.9294110000 	    1.1947610000 	   -0.0410550000
C   	   -2.9633340000 	    0.2699340000 	    0.0793430000
C   	   -2.6744670000 	   -1.0916530000 	    0.1130040000
C   	   -1.3559870000 	   -1.5219640000 	    0.0213640000
H   	    3.9070800000 	   -0.6436530000 	    0.9079030000
H   	    3.9415950000 	   -0.3094100000 	   -0.8229900000
H   	    3.3724310000 	   -1.9000410000 	   -0.2446930000
H   	    2.6856740000 	    1.7218530000 	    0.1894760000
H   	    1.6548210000 	    1.1907060000 	    1.5164790000
H   	    0.7738960000 	    1.8728510000 	   -1.3378360000
H   	    0.3041820000 	    2.7128360000 	    0.1388380000
H   	   -2.1520770000 	    2.2603490000 	   -0.0668100000
H   	   -3.9925550000 	    0.6131850000 	    0.1470990000
H   	   -3.4771030000 	   -1.8187710000 	    0.2060150000
H   	   -1.1015880000 	   -2.5781790000 	    0.0356790000
