16
tauto -288.702880011
C   	    2.4433430000 	    0.0162290000 	    0.0729090000
C   	    0.9491550000 	    0.0845260000 	   -0.0120380000
C   	    0.2455420000 	    1.2201010000 	    0.0754520000
C   	   -1.2163260000 	    1.1852070000 	   -0.1040050000
N   	   -1.9412360000 	    0.1377360000 	   -0.0498220000
C   	   -1.2331560000 	   -1.1006820000 	    0.2709690000
C   	    0.1861840000 	   -1.1892200000 	   -0.2875530000
H   	    2.8894020000 	    1.0058610000 	    0.2091840000
H   	    2.8593850000 	   -0.4290320000 	   -0.8402000000
H   	    2.7563540000 	   -0.6241040000 	    0.9069630000
H   	    0.7313380000 	    2.1819490000 	    0.2253450000
H   	   -1.7257290000 	    2.1321700000 	   -0.3013650000
H   	   -1.8366110000 	   -1.9418820000 	   -0.0840700000
H   	   -1.1991030000 	   -1.1765540000 	    1.3687320000
H   	    0.1625320000 	   -1.3550550000 	   -1.3758820000
H   	    0.7026300000 	   -2.0544730000 	    0.1456430000
