26
tauto -648.830032358
C   	    0.7135900000 	    1.5820920000 	   -0.0104930000
C   	    1.9230160000 	    0.9034550000 	    0.0000700000
C   	    3.2802570000 	    1.3531030000 	    0.0126670000
C   	    4.2877640000 	    0.4354160000 	    0.0179420000
C   	    4.0267870000 	   -0.9749770000 	    0.0099890000
C   	    2.7493640000 	   -1.4515130000 	   -0.0010770000
C   	    1.6701710000 	   -0.5239560000 	   -0.0052180000
C   	    0.2866600000 	   -0.6417230000 	   -0.0134560000
N   	   -0.2649410000 	    0.6097910000 	   -0.0157120000
C   	   -1.6569850000 	    0.4990560000 	   -0.0133380000
C   	   -2.6602460000 	    1.4554060000 	   -0.0055640000
C   	   -3.9768230000 	    1.0052380000 	    0.0144640000
C   	   -4.2690570000 	   -0.3630860000 	    0.0256400000
C   	   -3.2628250000 	   -1.3238460000 	    0.0110280000
C   	   -1.9453770000 	   -0.8787040000 	   -0.0108860000
N   	   -0.7437750000 	   -1.5698520000 	   -0.0498420000
H   	   -0.6338360000 	   -2.5448940000 	    0.1698700000
H   	    0.4725220000 	    2.6340540000 	   -0.0186700000
H   	    3.4973480000 	    2.4187010000 	    0.0184550000
H   	    5.3214030000 	    0.7733440000 	    0.0279160000
H   	    4.8651340000 	   -1.6665330000 	    0.0115420000
H   	    2.5570740000 	   -2.5224540000 	   -0.0099730000
H   	   -2.4241900000 	    2.5155640000 	   -0.0112150000
H   	   -4.7879310000 	    1.7273570000 	    0.0224120000
H   	   -5.3064080000 	   -0.6859060000 	    0.0435760000
H   	   -3.4979010000 	   -2.3845620000 	    0.0143480000
