21
tauto -458.362034589
C   	    1.7410900000 	    1.9291400000 	    0.0008890000
N   	    1.1382340000 	    0.6229600000 	   -0.0016830000
C   	    1.8157330000 	   -0.5990980000 	   -0.0002110000
C   	    0.7577050000 	   -1.6952060000 	   -0.0002880000
N   	    3.0630070000 	   -0.8452100000 	    0.0007590000
C   	   -0.2467820000 	    0.4317490000 	   -0.0007330000
C   	   -0.5420470000 	   -0.9364630000 	   -0.0002100000
C   	   -1.8574380000 	   -1.3556840000 	    0.0003490000
C   	   -2.8796390000 	   -0.3983820000 	    0.0005360000
C   	   -2.5699900000 	    0.9563150000 	    0.0001920000
C   	   -1.2423810000 	    1.3961850000 	   -0.0004360000
H   	    2.8285310000 	    1.8311560000 	   -0.0026320000
H   	    1.4509870000 	    2.4944360000 	    0.8950850000
H   	    1.4461130000 	    2.4996200000 	   -0.8883530000
H   	    0.8883810000 	   -2.3309350000 	    0.8814910000
H   	    0.8883400000 	   -2.3311660000 	   -0.8819000000
H   	    3.6259170000 	    0.0057330000 	    0.0007020000
H   	   -2.0983590000 	   -2.4165030000 	    0.0007300000
H   	   -3.9183190000 	   -0.7169170000 	    0.0010090000
H   	   -3.3704460000 	    1.6918160000 	    0.0004360000
H   	   -1.0073350000 	    2.4571710000 	   -0.0006290000
