24
tauto -497.655838993
C   	   -3.1609200000 	   -1.0801890000 	    0.6630660000
N   	   -2.5549430000 	   -0.1423260000 	   -0.2741340000
C   	   -3.2963250000 	    1.1004850000 	   -0.3631390000
C   	   -1.1773770000 	    0.0323020000 	   -0.1290510000
C   	   -0.4271270000 	    1.1588170000 	    0.0671650000
C   	    0.9541140000 	    0.7461600000 	    0.0676520000
C   	    2.1734500000 	    1.4178950000 	    0.2199930000
C   	    3.3545030000 	    0.6945120000 	    0.1621280000
C   	    3.3445200000 	   -0.6948220000 	   -0.0419100000
C   	    2.1509610000 	   -1.3871490000 	   -0.1822570000
C   	    0.9688920000 	   -0.6519490000 	   -0.1228730000
N   	   -0.3477360000 	   -1.0733820000 	   -0.2114640000
H   	   -0.6386740000 	   -1.9450050000 	   -0.6243930000
H   	   -4.1767770000 	   -1.3143480000 	    0.3294140000
H   	   -3.2112110000 	   -0.6705450000 	    1.6856820000
H   	   -2.5901770000 	   -2.0109770000 	    0.6979500000
H   	   -4.3355300000 	    0.8779650000 	   -0.6242980000
H   	   -2.8658700000 	    1.7281760000 	   -1.1478520000
H   	   -3.2898380000 	    1.6662670000 	    0.5846010000
H   	   -0.8041640000 	    2.1607000000 	    0.2208360000
H   	    2.1921200000 	    2.4939490000 	    0.3771260000
H   	    4.3057880000 	    1.2082280000 	    0.2757650000
H   	    4.2857090000 	   -1.2366180000 	   -0.0876060000
H   	    2.1392240000 	   -2.4641990000 	   -0.3326880000
