22
tauto -517.292997448
C   	   -3.1624440000 	   -1.0719710000 	    0.0004250000
C   	   -3.1211590000 	    0.2973690000 	    0.0001360000
C   	   -1.7339430000 	    0.6680700000 	    0.0000720000
C   	   -1.1042110000 	    1.8724300000 	   -0.0000660000
N   	    0.2517680000 	    1.9440760000 	   -0.0003660000
C   	    1.0763060000 	    0.8220760000 	   -0.0001990000
C   	    2.4694040000 	    0.9838940000 	   -0.0002880000
C   	    3.2915370000 	   -0.1246540000 	   -0.0001740000
C   	    2.7343350000 	   -1.4117180000 	    0.0000000000
C   	    1.3636710000 	   -1.5704010000 	    0.0000610000
C   	    0.4955820000 	   -0.4627740000 	   -0.0000210000
C   	   -0.9457480000 	   -0.5649870000 	    0.0001050000
C   	   -1.8284360000 	   -1.6142600000 	    0.0002610000
H   	   -4.0668490000 	   -1.6727450000 	    0.0006160000
H   	   -3.9625040000 	    0.9805300000 	    0.0001000000
H   	   -1.6261750000 	    2.8251470000 	   -0.0000960000
H   	    0.6938920000 	    2.8506150000 	    0.0001700000
H   	    2.8947390000 	    1.9861990000 	   -0.0004740000
H   	    4.3702980000 	    0.0056110000 	   -0.0002160000
H   	    3.3821340000 	   -2.2839840000 	    0.0000670000
H   	    0.9286350000 	   -2.5668770000 	    0.0001750000
H   	   -1.5859080000 	   -2.6714650000 	    0.0003410000
