14
tauto -341.619135654
C   	    2.1357330000 	    0.0050870000 	    0.0002160000
C   	    1.3346660000 	    1.1247390000 	   -0.0000120000
N   	    0.0303140000 	    0.6727290000 	   -0.0001770000
C   	   -1.2830470000 	    1.1420450000 	    0.0001310000
C   	   -2.0870590000 	    0.0537700000 	    0.0002000000
N   	   -1.2967280000 	   -1.0854380000 	   -0.0005240000
H   	   -1.6281700000 	   -2.0329620000 	    0.0023770000
C   	    0.0283190000 	   -0.7011700000 	   -0.0001870000
C   	    1.3276550000 	   -1.1688460000 	   -0.0000100000
H   	    3.2188610000 	    0.0206190000 	    0.0003940000
H   	    1.5683470000 	    2.1788670000 	   -0.0001210000
H   	   -1.5250310000 	    2.1932250000 	    0.0000280000
H   	   -3.1651730000 	   -0.0072510000 	    0.0002620000
H   	    1.6584560000 	   -2.1972770000 	   -0.0000630000
