18
tauto -527.245297208
C   	    0.3737680000 	    1.6552900000 	    0.0000090000
C   	   -0.7923370000 	    0.8903740000 	    0.0000460000
C   	   -2.1716020000 	    1.2599430000 	    0.0001090000
C   	   -3.1251510000 	    0.2842980000 	    0.0001330000
C   	   -2.7851410000 	   -1.1064320000 	    0.0000940000
C   	   -1.4812340000 	   -1.5088570000 	    0.0000340000
C   	   -0.4623140000 	   -0.5191390000 	    0.0000090000
C   	    0.9310620000 	   -0.5439460000 	   -0.0000460000
N   	    1.3932680000 	    0.7391370000 	   -0.0000490000
N   	    2.7521110000 	    0.7691570000 	   -0.0000960000
N   	    3.1516360000 	   -0.4424820000 	   -0.0001260000
N   	    2.0901520000 	   -1.2643110000 	   -0.0001190000
H   	    2.2396550000 	   -2.2593910000 	   -0.0000350000
H   	    0.5597130000 	    2.7169670000 	    0.0000160000
H   	   -2.4494300000 	    2.3109490000 	    0.0001380000
H   	   -4.1760000000 	    0.5631690000 	    0.0001820000
H   	   -3.5812650000 	   -1.8455800000 	    0.0001120000
H   	   -1.2251560000 	   -2.5658070000 	    0.0000010000
