8
tauto -133.908340068
C   	   -1.1836770000 	   -0.1537620000 	    0.0000000000
C   	    0.1996750000 	    0.4538660000 	   -0.0000020000
N   	    1.3034950000 	   -0.1723470000 	    0.0000010000
H   	   -1.9634110000 	    0.6122770000 	   -0.0000080000
H   	   -1.3245450000 	   -0.7846950000 	    0.8848480000
H   	   -1.3245410000 	   -0.7847110000 	   -0.8848370000
H   	    0.2594830000 	    1.5472150000 	    0.0000020000
H   	    1.1325630000 	   -1.1842800000 	    0.0000010000
