28
tauto -650.031945304
C   	    4.7088610000 	   -0.4647050000 	   -0.0431920000
C   	    4.2493530000 	    0.7759350000 	    0.3917140000
C   	    2.8866580000 	    1.0448860000 	    0.4277750000
C   	    3.7922490000 	   -1.4327220000 	   -0.4425180000
C   	    2.4285690000 	   -1.1618240000 	   -0.4169380000
C   	    1.9571280000 	    0.0861800000 	    0.0071470000
C   	    0.5080220000 	    0.3703840000 	    0.0151640000
C   	   -0.0026190000 	    1.5833290000 	   -0.2272660000
N   	   -1.3784480000 	    1.8558280000 	   -0.1587850000
C   	   -2.2605000000 	    0.7605550000 	   -0.0731650000
C   	   -3.6343280000 	    0.9404850000 	   -0.1722790000
C   	   -4.5069700000 	   -0.1414680000 	   -0.0559090000
C   	   -4.0006180000 	   -1.4138830000 	    0.1599670000
C   	   -2.6205180000 	   -1.6018430000 	    0.2430060000
C   	   -1.7439610000 	   -0.5310570000 	    0.1350020000
N   	   -0.3456040000 	   -0.7461050000 	    0.2193930000
H   	    5.7746340000 	   -0.6775490000 	   -0.0620960000
H   	    4.9561530000 	    1.5329790000 	    0.7224660000
H   	    2.5322150000 	    1.9997480000 	    0.8088900000
H   	    4.1407660000 	   -2.4049710000 	   -0.7826190000
H   	    1.7128470000 	   -1.9110680000 	   -0.7446880000
H   	    0.6309090000 	    2.4214930000 	   -0.4933700000
H   	   -1.6972850000 	    2.6048070000 	   -0.7558260000
H   	   -4.0242580000 	    1.9456390000 	   -0.3214530000
H   	   -5.5784730000 	    0.0217290000 	   -0.1316520000
H   	   -4.6682400000 	   -2.2657180000 	    0.2545720000
H   	   -2.2076700000 	   -2.5984800000 	    0.3842250000
H   	   -0.0712080000 	   -1.3221840000 	    1.0062400000
