24
tauto -501.474813134
C   	    2.5206790000 	   -1.6980780000 	    0.9476780000
C   	    2.3865300000 	   -0.9311850000 	   -0.3719970000
C   	    1.3220140000 	    0.1358760000 	   -0.3246830000
C   	    1.6162000000 	    1.4392480000 	   -0.3082870000
C   	    0.5214100000 	    2.4656840000 	   -0.2445530000
O   	   -0.6102230000 	    2.0027400000 	    0.4872860000
C   	   -1.0190270000 	    0.7375810000 	    0.1889090000
C   	   -0.1056250000 	   -0.2422170000 	   -0.2344190000
C   	   -0.5945920000 	   -1.5245090000 	   -0.4971860000
C   	   -1.9407830000 	   -1.8311950000 	   -0.3361170000
C   	   -2.8226790000 	   -0.8496870000 	    0.1096320000
C   	   -2.3644500000 	    0.4353330000 	    0.3729830000
H   	    3.2987540000 	   -2.4653260000 	    0.8759870000
H   	    1.5817660000 	   -2.1900220000 	    1.2220400000
H   	    2.7874570000 	   -1.0148260000 	    1.7607320000
H   	    2.1721680000 	   -1.6348970000 	   -1.1872940000
H   	    3.3440200000 	   -0.4585970000 	   -0.6196760000
H   	    2.6459390000 	    1.7875640000 	   -0.3602490000
H   	    0.1968450000 	    2.7572210000 	   -1.2579460000
H   	    0.8500170000 	    3.3706760000 	    0.2726800000
H   	    0.0927250000 	   -2.2988830000 	   -0.8297500000
H   	   -2.2987960000 	   -2.8345220000 	   -0.5493800000
H   	   -3.8757480000 	   -1.0819250000 	    0.2463910000
H   	   -3.0314290000 	    1.2205120000 	    0.7164140000
