26
tauto -594.698132439
C   	    3.7674000000 	    0.0783780000 	   -0.6569070000
C   	    3.4212490000 	   -1.2442900000 	   -0.4068240000
C   	    2.1602260000 	   -1.5466040000 	    0.0940320000
C   	    2.8443880000 	    1.0811060000 	   -0.3873630000
C   	    1.5741910000 	    0.8012750000 	    0.1245720000
C   	    1.2336810000 	   -0.5399550000 	    0.3697130000
N   	    0.0000000000 	   -0.8839690000 	    0.9727980000
C   	   -1.2336810000 	   -0.5399550000 	    0.3697130000
C   	   -2.1602270000 	   -1.5466030000 	    0.0940340000
C   	   -3.4212500000 	   -1.2442900000 	   -0.4068220000
C   	   -3.7674000000 	    0.0783780000 	   -0.6569070000
C   	   -2.8443880000 	    1.0811060000 	   -0.3873640000
C   	   -1.5741910000 	    0.8012750000 	    0.1245700000
C   	   -0.6689840000 	    1.9242140000 	    0.4144410000
C   	    0.6689850000 	    1.9242140000 	    0.4144420000
H   	    4.7486560000 	    0.3287260000 	   -1.0500620000
H   	    4.1292130000 	   -2.0456220000 	   -0.6018680000
H   	    1.8879950000 	   -2.5832110000 	    0.2856180000
H   	    3.1097470000 	    2.1211470000 	   -0.5675010000
H   	    0.0000000000 	   -1.8560800000 	    1.2551420000
H   	   -1.8879970000 	   -2.5832110000 	    0.2856200000
H   	   -4.1292140000 	   -2.0456210000 	   -0.6018660000
H   	   -4.7486560000 	    0.3287270000 	   -1.0500610000
H   	   -3.1097460000 	    2.1211470000 	   -0.5675030000
H   	   -1.1681680000 	    2.8761450000 	    0.5914550000
H   	    1.1681690000 	    2.8761450000 	    0.5914580000
