22
tauto -645.678622681
O   	   -4.3410040000 	   -0.6263410000 	    0.1080220000
C   	   -3.1620310000 	   -0.3890410000 	    0.0529480000
C   	   -2.4837550000 	    0.9584670000 	   -0.2697380000
N   	   -1.1364490000 	    0.6979860000 	   -0.1554040000
O   	   -3.0153480000 	    1.9981330000 	   -0.5612400000
N   	   -2.1116830000 	   -1.2542600000 	    0.2530050000
C   	   -0.8593250000 	   -0.6402920000 	    0.1388780000
C   	    0.3323560000 	   -1.2350770000 	    0.2651640000
C   	    1.6360140000 	   -0.5550910000 	    0.1566500000
C   	    2.6949400000 	   -1.1940460000 	   -0.5007170000
C   	    3.9324170000 	   -0.5762110000 	   -0.6277500000
C   	    4.1393190000 	    0.6953990000 	   -0.0980790000
C   	    3.1026750000 	    1.3345470000 	    0.5735450000
C   	    1.8652090000 	    0.7121510000 	    0.7083320000
H   	   -0.4210360000 	    1.3619730000 	   -0.4132390000
H   	   -2.2362060000 	   -2.2196570000 	    0.5173800000
H   	    0.3346240000 	   -2.3116430000 	    0.4175020000
H   	    2.5369350000 	   -2.1835150000 	   -0.9245910000
H   	    4.7396690000 	   -1.0882450000 	   -1.1452860000
H   	    5.1067200000 	    1.1797210000 	   -0.1996990000
H   	    3.2598400000 	    2.3170600000 	    1.0113080000
H   	    1.0802800000 	    1.1990540000 	    1.2837580000
