14
tauto -324.574699162
C   	   -2.3766190000 	    0.0565330000 	    0.0124670000
C   	   -0.8862080000 	    0.0909560000 	    0.0073080000
C   	   -0.1325650000 	    1.1882280000 	   -0.0103370000
N   	    1.2879190000 	    1.1669330000 	   -0.1002860000
C   	    1.8067000000 	   -0.1489910000 	    0.0022380000
C   	    1.0307040000 	   -1.2266180000 	    0.0190280000
O   	   -0.3507810000 	   -1.1910770000 	   -0.0126290000
H   	   -2.7900230000 	    1.0682230000 	    0.0329840000
H   	   -2.7418640000 	   -0.4929500000 	    0.8872380000
H   	   -2.7512350000 	   -0.4585950000 	   -0.8793480000
H   	   -0.5954380000 	    2.1688540000 	   -0.0194020000
H   	    1.7215340000 	    1.8013440000 	    0.5615320000
H   	    2.8864770000 	   -0.2465980000 	    0.0080360000
H   	    1.4092940000 	   -2.2408390000 	    0.0277610000
