14
tauto -324.631990262
C   	    1.8945660000 	   -0.8212840000 	    0.0003080000
N   	    0.5086180000 	   -0.4373000000 	   -0.0007770000
C   	   -0.5888180000 	   -1.3706620000 	   -0.0000880000
C   	   -1.7919990000 	   -0.4652910000 	    0.0002350000
C   	   -1.4057990000 	    0.8084100000 	    0.0001270000
C   	    0.0879610000 	    0.8716740000 	   -0.0001550000
O   	    0.8067460000 	    1.8540150000 	    0.0000190000
H   	    2.1461600000 	   -1.4081200000 	    0.8927620000
H   	    2.4833400000 	    0.0989180000 	    0.0001240000
H   	    2.1471280000 	   -1.4095920000 	   -0.8908120000
H   	   -0.5688170000 	   -2.0211840000 	    0.8868900000
H   	   -0.5697430000 	   -2.0212860000 	   -0.8870370000
H   	   -2.8072910000 	   -0.8466090000 	    0.0005230000
H   	   -2.0205360000 	    1.6997740000 	    0.0002700000
