12
tauto -248.364951328
C   	    1.0673320000 	    1.2676340000 	    0.0409730000
C   	    0.3015730000 	   -0.0000140000 	   -0.3251320000
C   	    1.0678730000 	   -1.2673350000 	    0.0409390000
N   	   -0.9456610000 	   -0.0002460000 	    0.4900940000
O   	   -1.9498250000 	   -0.0001350000 	   -0.1732170000
H   	    2.0233270000 	    1.2944320000 	   -0.4914340000
H   	    1.2693830000 	    1.2958680000 	    1.1171220000
H   	    0.4997480000 	    2.1644290000 	   -0.2269910000
H   	    0.0106010000 	   -0.0000420000 	   -1.3828650000
H   	    1.2699780000 	   -1.2954850000 	    1.1170800000
H   	    2.0238590000 	   -1.2937330000 	   -0.4915060000
H   	    0.5006640000 	   -2.1643750000 	   -0.2269990000
