23
tauto -459.526668079
C   	    3.3881060000 	    0.3214860000 	   -1.2358660000
C   	    2.7069520000 	   -0.3172950000 	   -0.0289060000
C   	    3.3854550000 	    0.0721110000 	    1.2813400000
N   	    1.3269090000 	    0.1810700000 	    0.0179830000
N   	    0.4860380000 	   -0.7253970000 	   -0.0635280000
C   	   -0.8773940000 	   -0.2756390000 	   -0.0255470000
C   	   -1.2610650000 	    1.0651880000 	    0.0400170000
C   	   -2.6105460000 	    1.3877400000 	    0.0678710000
C   	   -3.5767480000 	    0.3815130000 	    0.0313070000
C   	   -3.1908060000 	   -0.9532940000 	   -0.0346910000
C   	   -1.8386800000 	   -1.2809090000 	   -0.0648780000
H   	    4.4338090000 	    0.0016890000 	   -1.2953950000
H   	    3.3631660000 	    1.4137000000 	   -1.1546280000
H   	    2.8862510000 	    0.0343390000 	   -2.1654190000
H   	    2.6868620000 	   -1.4100620000 	   -0.1371150000
H   	    3.3534980000 	    1.1583680000 	    1.4200930000
H   	    4.4332620000 	   -0.2463080000 	    1.2755270000
H   	    2.8866270000 	   -0.3979480000 	    2.1349160000
H   	   -0.4930540000 	    1.8314040000 	    0.0675840000
H   	   -2.9150000000 	    2.4301370000 	    0.1182490000
H   	   -4.6320220000 	    0.6417390000 	    0.0537690000
H   	   -3.9412570000 	   -1.7387560000 	   -0.0638330000
H   	   -1.5044240000 	   -2.3134220000 	   -0.1188240000
