6
tauto -260.966771769
N   	   -0.0000840000 	    1.2132760000 	    0.0000000000
N   	    0.0000330000 	   -0.1374540000 	    0.0000000000
O   	    0.0000330000 	   -0.6787210000 	    1.0911350000
O   	    0.0000330000 	   -0.6787210000 	   -1.0911350000
H   	   -0.0000840000 	    1.6643880000 	    0.8989930000
H   	   -0.0000840000 	    1.6643880000 	   -0.8989930000
