19
tauto -436.248889469
C   	   -3.9312270000 	    0.6237280000 	   -0.2732980000
N   	   -2.8532770000 	   -0.3606310000 	   -0.3125420000
N   	   -1.8770780000 	   -0.0212010000 	    0.3648520000
C   	   -0.8081730000 	   -1.0207380000 	    0.3424540000
C   	    0.5554160000 	   -0.3929120000 	    0.1514250000
N   	    1.5394770000 	   -1.2648270000 	   -0.0902080000
C   	    2.7703720000 	   -0.7817610000 	   -0.2543280000
C   	    3.0854120000 	    0.5716700000 	   -0.1912970000
C   	    2.0554850000 	    1.4695020000 	    0.0606010000
C   	    0.7658230000 	    0.9825750000 	    0.2373030000
H   	   -4.8222890000 	    0.1311690000 	    0.1288870000
H   	   -4.1540010000 	    0.9189000000 	   -1.3034640000
H   	   -3.6696620000 	    1.4979960000 	    0.3324650000
H   	   -0.9882360000 	   -1.7819110000 	   -0.4247120000
H   	   -0.8248560000 	   -1.5183120000 	    1.3212210000
H   	    3.5472930000 	   -1.5199000000 	   -0.4493730000
H   	    4.1082920000 	    0.9060260000 	   -0.3369640000
H   	    2.2516720000 	    2.5372760000 	    0.1203390000
H   	   -0.0707260000 	    1.6429850000 	    0.4397230000
