16
tauto -267.836408906
C   	   -1.6473480000 	   -1.2645550000 	    0.1072410000
C   	   -0.9143630000 	   -0.0000060000 	   -0.3294440000
C   	   -1.6471240000 	    1.2646620000 	    0.1072740000
N   	    0.4045760000 	   -0.0001270000 	    0.3241580000
N   	    1.3386770000 	    0.0000480000 	   -0.4852040000
C   	    2.6456040000 	   -0.0000470000 	    0.1689530000
H   	   -2.6500160000 	   -1.2943280000 	   -0.3320840000
H   	   -1.7452320000 	   -1.2930140000 	    1.1980670000
H   	   -1.1053180000 	   -2.1606300000 	   -0.2120930000
H   	   -0.7717170000 	    0.0000090000 	   -1.4184200000
H   	   -1.7448670000 	    1.2931940000 	    1.1981110000
H   	   -2.6498460000 	    1.2945330000 	   -0.3319220000
H   	   -1.1050190000 	    2.1606460000 	   -0.2121860000
H   	    3.1946620000 	    0.8830740000 	   -0.1733550000
H   	    3.1947070000 	   -0.8830100000 	   -0.1736850000
H   	    2.5592570000 	   -0.0002490000 	    1.2607490000
