7
tauto -244.948073645
C   	    1.3153800000 	   -0.0421130000 	    0.0000040000
N   	   -0.1721210000 	    0.0000060000 	   -0.0000210000
O   	   -0.7697110000 	   -1.0595450000 	    0.0000060000
O   	   -0.6832540000 	    1.1046310000 	    0.0000060000
H   	    1.6302840000 	   -1.0830160000 	    0.0000110000
H   	    1.6529870000 	    0.4874820000 	    0.8912080000
H   	    1.6530140000 	    0.4874780000 	   -0.8911930000
