12
tauto -211.323967481
C   	    1.0177290000 	    1.2716820000 	    0.1449750000
C   	    0.3607000000 	   -0.0000160000 	   -0.4052420000
C   	    1.0168320000 	   -1.2721590000 	    0.1451090000
C   	   -1.0804700000 	    0.0006350000 	   -0.0999740000
N   	   -2.2090130000 	    0.0001520000 	    0.1550990000
H   	    2.0803000000 	    1.2800710000 	   -0.1182750000
H   	    0.9328440000 	    1.3077600000 	    1.2358370000
H   	    0.5511260000 	    2.1713830000 	   -0.2658140000
H   	    0.4491910000 	   -0.0001070000 	   -1.4989400000
H   	    0.9318860000 	   -1.3080650000 	    1.2359720000
H   	    2.0794120000 	   -1.2813970000 	   -0.1180850000
H   	    0.5495800000 	   -2.1715630000 	   -0.2655940000
