17
tauto -309.791641269
O   	    2.3846170000 	   -0.0347750000 	    0.0590850000
C   	    1.0225820000 	    0.0695250000 	    0.0067550000
C   	    0.3579150000 	    1.2235930000 	   -0.0896210000
C   	   -1.1485340000 	    1.3005750000 	   -0.1091860000
C   	   -1.7881030000 	   -0.0106770000 	    0.3547580000
C   	   -1.1107120000 	   -1.2069240000 	   -0.3138180000
C   	    0.3656540000 	   -1.2793850000 	    0.0792420000
H   	    2.7590770000 	    0.8564110000 	    0.0496200000
H   	    0.9148830000 	    2.1593050000 	   -0.1585240000
H   	   -1.5000210000 	    1.5437850000 	   -1.1234480000
H   	   -1.4859860000 	    2.1255960000 	    0.5313340000
H   	   -2.8625570000 	   -0.0040630000 	    0.1373320000
H   	   -1.6812700000 	   -0.1015710000 	    1.4443860000
H   	   -1.1923860000 	   -1.1024130000 	   -1.4042350000
H   	   -1.6152860000 	   -2.1418690000 	   -0.0448210000
H   	    0.9166140000 	   -1.9669730000 	   -0.5733160000
H   	    0.4771860000 	   -1.6702480000 	    1.1002090000
