20
tauto -515.245279462
O   	   -2.7448550000 	    1.3574420000 	   -0.1886760000
N   	   -2.4027530000 	    0.2481810000 	    0.1810220000
C   	   -1.8126190000 	   -0.6715360000 	   -0.8505750000
C   	   -0.5888210000 	   -1.4051400000 	   -0.3327180000
C   	    0.6711410000 	   -0.5759220000 	   -0.1717490000
C   	    1.8650760000 	   -1.2400300000 	    0.1266890000
C   	    3.0520380000 	   -0.5393950000 	    0.2916540000
C   	    3.0670280000 	    0.8477620000 	    0.1590070000
C   	    1.8873520000 	    1.5181210000 	   -0.1361700000
C   	    0.6961200000 	    0.8122770000 	   -0.3006120000
O   	   -2.5332270000 	   -0.1892700000 	    1.3081200000
H   	   -1.6162430000 	   -0.0534630000 	   -1.7268310000
H   	   -2.6167780000 	   -1.3772070000 	   -1.0769280000
H   	   -0.3894170000 	   -2.2257450000 	   -1.0327410000
H   	   -0.8544960000 	   -1.8714560000 	    0.6226090000
H   	    1.8597840000 	   -2.3240660000 	    0.2312160000
H   	    3.9690320000 	   -1.0756670000 	    0.5225950000
H   	    3.9945370000 	    1.3995440000 	    0.2871660000
H   	    1.8849910000 	    2.6001970000 	   -0.2392960000
H   	   -0.2113740000 	    1.3684040000 	   -0.5236480000
