13
tauto -323.56161834
C   	   -2.6432490000 	   -0.1949950000 	    0.0038530000
C   	   -1.2658830000 	    0.4632490000 	   -0.0567990000
C   	   -0.1722240000 	   -0.5803390000 	    0.0558420000
N   	    1.2124650000 	   -0.0026910000 	    0.0052700000
O   	    1.3385520000 	    1.2071160000 	    0.0317550000
O   	    2.1257930000 	   -0.8055540000 	   -0.0464500000
H   	   -3.4327630000 	    0.5574970000 	   -0.0780540000
H   	   -2.7897170000 	   -0.7294880000 	    0.9494490000
H   	   -2.7812730000 	   -0.9136430000 	   -0.8120590000
H   	   -1.1539010000 	    1.1940410000 	    0.7496630000
H   	   -1.1463150000 	    1.0135460000 	   -0.9957420000
H   	   -0.1990470000 	   -1.3153500000 	   -0.7526900000
H   	   -0.2108640000 	   -1.1277520000 	    1.0027280000
