16
tauto -362.868073322
C   	    1.0622450000 	    1.4619930000 	   -0.2318760000
C   	    1.0794620000 	   -0.0648180000 	   -0.3053620000
C   	    2.4161680000 	   -0.6332440000 	    0.1709570000
C   	   -0.0444920000 	   -0.6729990000 	    0.5323030000
N   	   -1.3726840000 	   -0.1867250000 	    0.0496240000
O   	   -1.6851180000 	   -0.4864120000 	   -1.0895080000
O   	   -2.0411560000 	    0.4915220000 	    0.8078960000
H   	    1.8748900000 	    1.8812720000 	   -0.8340030000
H   	    1.1961610000 	    1.8056560000 	    0.8012620000
H   	    0.1216640000 	    1.8785500000 	   -0.6080590000
H   	    0.9084510000 	   -0.3745030000 	   -1.3432760000
H   	    2.6105910000 	   -0.3585560000 	    1.2150920000
H   	    3.2369250000 	   -0.2368390000 	   -0.4353310000
H   	    2.4412680000 	   -1.7262820000 	    0.0966450000
H   	    0.0206230000 	   -0.3873350000 	    1.5838780000
H   	   -0.0718940000 	   -1.7613600000 	    0.4331920000
