10
tauto -338.360667293
N   	   -2.4680340000 	   -0.2758270000 	   -0.2989730000
C   	   -1.4073070000 	    0.3139380000 	    0.0616970000
C   	   -0.2426250000 	   -0.5180370000 	    0.5267770000
N   	    1.0569170000 	    0.0089270000 	    0.0027250000
O   	    1.8881920000 	   -0.8054370000 	   -0.3426480000
O   	    1.1991100000 	    1.2194140000 	   -0.0084510000
H   	   -3.1822720000 	    0.4078250000 	   -0.5573040000
H   	   -1.2576990000 	    1.3982760000 	    0.0887910000
H   	   -0.3363350000 	   -1.5532960000 	    0.2033410000
H   	   -0.1446980000 	   -0.4717330000 	    1.6168560000
