25
tauto -514.852110474
C   	    3.9766210000 	    1.0143560000 	    0.9812070000
C   	    3.5297450000 	    0.8037430000 	   -0.4620230000
C   	    3.1294280000 	   -0.6397010000 	   -0.7592110000
N   	    1.9952960000 	   -1.0706140000 	    0.0442670000
N   	    0.8397490000 	   -0.4337770000 	   -0.1516040000
N   	   -0.1524950000 	   -1.0879200000 	    0.2385190000
C   	   -1.3854650000 	   -0.3880170000 	    0.1094770000
C   	   -2.5380360000 	   -1.1604530000 	    0.2453360000
C   	   -3.7934270000 	   -0.5720190000 	    0.1403350000
C   	   -3.9048060000 	    0.7956570000 	   -0.0908210000
C   	   -2.7525050000 	    1.5705090000 	   -0.2141470000
C   	   -1.4961250000 	    0.9875180000 	   -0.1124800000
H   	    4.2391820000 	    2.0613650000 	    1.1632590000
H   	    4.8561340000 	    0.4024150000 	    1.2159100000
H   	    3.1798710000 	    0.7372090000 	    1.6784190000
H   	    4.3352090000 	    1.0785640000 	   -1.1545170000
H   	    2.6798280000 	    1.4559500000 	   -0.6928280000
H   	    3.9543200000 	   -1.3150150000 	   -0.5052440000
H   	    2.9196800000 	   -0.7625570000 	   -1.8314340000
H   	    1.8919760000 	   -2.0586150000 	    0.2645640000
H   	   -2.4262820000 	   -2.2252970000 	    0.4302680000
H   	   -4.6867640000 	   -1.1829220000 	    0.2427790000
H   	   -4.8846530000 	    1.2595340000 	   -0.1690040000
H   	   -2.8347990000 	    2.6411000000 	   -0.3854030000
H   	   -0.5941320000 	    1.5848930000 	   -0.2010820000
