9
tauto -358.232001166
O   	    1.2053760000 	    1.2087600000 	    0.1069420000
N   	    1.0574160000 	    0.0008240000 	    0.0325280000
C   	   -0.2728750000 	   -0.5255500000 	    0.4444320000
C   	   -1.4111750000 	    0.2832740000 	   -0.1634720000
O   	   -2.5381930000 	   -0.1358290000 	   -0.1485420000
O   	    1.8931740000 	   -0.7991880000 	   -0.3356160000
H   	   -0.3126330000 	   -0.4303660000 	    1.5341290000
H   	   -0.3320560000 	   -1.5761300000 	    0.1614000000
H   	   -1.1357790000 	    1.2644320000 	   -0.5912600000
