28
tauto -554.160041705
C   	    5.1334370000 	    1.4439650000 	    0.2618420000
C   	    3.9154840000 	    0.7602620000 	   -0.3526310000
C   	    3.5727830000 	   -0.5390180000 	    0.3691980000
N   	    2.4045420000 	   -1.1899760000 	   -0.2011430000
N   	    1.2389070000 	   -0.5499630000 	   -0.0623960000
N   	    0.2500130000 	   -1.3072740000 	   -0.1685300000
C   	   -0.9999500000 	   -0.6301210000 	   -0.0988220000
C   	   -2.1231280000 	   -1.4353340000 	    0.0685610000
C   	   -3.3906040000 	   -0.8680290000 	    0.1465880000
C   	   -3.5668370000 	    0.5114250000 	    0.0500970000
C   	   -4.9359350000 	    1.1356100000 	    0.1521170000
C   	   -2.4315160000 	    1.3084900000 	   -0.1340020000
C   	   -1.1628190000 	    0.7539560000 	   -0.2102790000
H   	    5.3659970000 	    2.3782980000 	   -0.2583480000
H   	    6.0211530000 	    0.8023700000 	    0.2068790000
H   	    4.9619550000 	    1.6845860000 	    1.3176460000
H   	    4.0912540000 	    0.5376490000 	   -1.4117730000
H   	    3.0455050000 	    1.4251260000 	   -0.3098980000
H   	    3.4339590000 	   -0.3472240000 	    1.4441880000
H   	    4.4008120000 	   -1.2499470000 	    0.2706250000
H   	    2.3257700000 	   -2.2020680000 	   -0.1294990000
H   	   -1.9836880000 	   -2.5106910000 	    0.1386010000
H   	   -4.2584260000 	   -1.5110420000 	    0.2806400000
H   	   -5.7249140000 	    0.3852840000 	    0.0410710000
H   	   -5.0844600000 	    1.8991230000 	   -0.6192120000
H   	   -5.0760750000 	    1.6228420000 	    1.1245710000
H   	   -2.5484520000 	    2.3870500000 	   -0.2269410000
H   	   -0.2901080000 	    1.3819030000 	   -0.3600810000
