23
tauto -574.755838059
C   	   -4.0118770000 	    0.7478630000 	   -0.4883890000
C   	   -2.7963530000 	    1.0686050000 	    0.3602750000
O   	   -1.5903580000 	    0.5735030000 	   -0.2493660000
C   	   -1.3071830000 	   -0.7166160000 	   -0.0273380000
C   	    0.0180770000 	   -1.0852930000 	   -0.6552520000
C   	    1.1710730000 	   -0.4595710000 	    0.1039620000
O   	    2.3144120000 	   -0.6060770000 	   -0.5799180000
C   	    3.4992030000 	   -0.0850480000 	    0.0531840000
C   	    3.6259210000 	    1.4096320000 	   -0.1692140000
O   	    1.0805530000 	    0.0713380000 	    1.1840200000
O   	   -2.0127360000 	   -1.4807270000 	    0.5843370000
H   	   -4.9066750000 	    1.1940210000 	   -0.0417310000
H   	   -4.1597130000 	   -0.3336150000 	   -0.5490790000
H   	   -3.8943600000 	    1.1503610000 	   -1.4993970000
H   	   -2.8856250000 	    0.6370870000 	    1.3603980000
H   	   -2.6356480000 	    2.1457170000 	    0.4442060000
H   	    0.0561740000 	   -0.7556330000 	   -1.6974440000
H   	    0.1282970000 	   -2.1726450000 	   -0.6327400000
H   	    4.3195240000 	   -0.6336140000 	   -0.4151800000
H   	    3.4623800000 	   -0.3254710000 	    1.1188920000
H   	    3.6215630000 	    1.6425430000 	   -1.2384750000
H   	    4.5659920000 	    1.7720510000 	    0.2596850000
H   	    2.7999640000 	    1.9374750000 	    0.3149100000
