23
tauto -537.635561548
C   	    3.6084460000 	   -0.1678260000 	    0.8599210000
C   	    2.9781170000 	   -0.3984440000 	   -0.5004520000
O   	    1.5924370000 	   -0.7628200000 	   -0.3780150000
C   	    0.7220530000 	    0.2426610000 	   -0.2162320000
C   	   -0.6546780000 	   -0.1852800000 	   -0.0950100000
C   	   -1.2163490000 	   -1.5839220000 	   -0.1491930000
C   	   -2.6765790000 	   -1.3803740000 	    0.3274780000
C   	   -3.0043190000 	    0.1060540000 	    0.0761940000
C   	   -1.6429990000 	    0.7350670000 	    0.0257840000
O   	   -1.5159970000 	    2.0538180000 	    0.0657840000
O   	    1.0692360000 	    1.4249240000 	   -0.1788580000
H   	    4.6799750000 	    0.0277980000 	    0.7461440000
H   	    3.4839620000 	   -1.0490360000 	    1.4967750000
H   	    3.1498230000 	    0.6947900000 	    1.3504170000
H   	    3.4356240000 	   -1.2466550000 	   -1.0152160000
H   	    3.0560800000 	    0.4925640000 	   -1.1286510000
H   	   -0.6704840000 	   -2.2859890000 	    0.4897080000
H   	   -1.1775660000 	   -1.9894660000 	   -1.1693080000
H   	   -2.7364590000 	   -1.5822250000 	    1.4022250000
H   	   -3.3789490000 	   -2.0539720000 	   -0.1711910000
H   	   -3.6322530000 	    0.5574110000 	    0.8509170000
H   	   -3.5099650000 	    0.2687090000 	   -0.8848860000
H   	   -0.5473530000 	    2.2310950000 	   -0.0091630000
