18
tauto -534.251244551
C   	    1.4291520000 	    0.0005460000 	    1.5082330000
C   	    1.1265420000 	   -0.0002250000 	    0.0164020000
C   	    2.3767010000 	   -0.0008130000 	   -0.8364320000
O   	    0.4082920000 	    1.1808060000 	   -0.3450300000
C   	   -0.9160900000 	    1.2757310000 	   -0.0842880000
C   	   -1.5942060000 	    0.0003340000 	    0.3677470000
O   	   -1.4903340000 	    2.3166170000 	   -0.2364850000
O   	    0.4079770000 	   -1.1815250000 	   -0.3437040000
C   	   -0.9166510000 	   -1.2754640000 	   -0.0840040000
O   	   -1.4914960000 	   -2.3160140000 	   -0.2363510000
H   	    2.0085210000 	    0.8915010000 	    1.7638700000
H   	    2.0083290000 	   -0.8902640000 	    1.7648070000
H   	    0.5147830000 	    0.0009550000 	    2.1090830000
H   	    2.9700400000 	    0.8917030000 	   -0.6230940000
H   	    2.0952940000 	   -0.0013970000 	   -1.8918710000
H   	    2.9698600000 	   -0.8932030000 	   -0.6220770000
H   	   -2.6222600000 	    0.0004910000 	    0.0027290000
H   	   -1.6527630000 	    0.0004880000 	    1.4631700000
