16
tauto -383.810200605
O   	   -2.2389920000 	   -1.0504080000 	   -0.3746170000
C   	   -1.2803760000 	   -0.4468550000 	    0.0489260000
C   	   -1.2691660000 	    1.0595510000 	    0.2304870000
C   	   -0.0007700000 	    1.6828210000 	   -0.3647040000
C   	    1.2685970000 	    1.0603140000 	    0.2291070000
C   	    0.0002880000 	   -1.1696860000 	    0.4495140000
C   	    1.2806250000 	   -0.4462600000 	    0.0487920000
O   	    2.2398130000 	   -1.0496120000 	   -0.3737340000
H   	   -1.3067820000 	    1.2703140000 	    1.3097800000
H   	   -2.1780080000 	    1.4644500000 	   -0.2218150000
H   	   -0.0009980000 	    2.7628510000 	   -0.1868040000
H   	   -0.0013620000 	    1.5438990000 	   -1.4535020000
H   	    1.3076620000 	    1.2717010000 	    1.3082390000
H   	    2.1767330000 	    1.4653220000 	   -0.2245260000
H   	    0.0005480000 	   -2.1869670000 	    0.0534610000
H   	    0.0004540000 	   -1.2307180000 	    1.5492460000
