14
tauto -419.715780848
O   	    2.2975780000 	   -1.0522730000 	   -0.1791300000
C   	    1.2836090000 	   -0.4182720000 	   -0.0146520000
C   	    1.1732290000 	    1.0666110000 	   -0.3058180000
C   	   -0.0843310000 	    1.6438920000 	    0.3242860000
O   	   -1.2511790000 	    0.9450860000 	   -0.1212840000
C   	    0.0040000000 	   -1.0493950000 	    0.5140150000
C   	   -1.2660430000 	   -0.4044460000 	   -0.0145650000
O   	   -2.2455110000 	   -1.0221750000 	   -0.3285410000
H   	    1.1339920000 	    1.1935410000 	   -1.3952460000
H   	    2.0760090000 	    1.5725590000 	    0.0497030000
H   	   -0.2434710000 	    2.6823270000 	    0.0304570000
H   	   -0.0325040000 	    1.6058170000 	    1.4204840000
H   	    0.0130280000 	   -0.9317080000 	    1.6083550000
H   	   -0.0169420000 	   -2.1179780000 	    0.2982870000
