23
tauto -724.713115532
C   	    3.5340050000 	   -0.6787800000 	    0.2554220000
C   	    2.1191110000 	   -1.1424430000 	   -0.0315670000
C   	    0.9831480000 	   -0.1729970000 	   -0.0157400000
C   	   -0.4281380000 	   -0.6014920000 	   -0.0069760000
C   	   -1.4435050000 	    0.3755810000 	    0.0052130000
C   	   -2.8018280000 	    0.0345580000 	    0.0332820000
C   	   -3.1794780000 	   -1.2920840000 	    0.0533430000
C   	   -2.1854150000 	   -2.2744480000 	    0.0437390000
C   	   -0.8399680000 	   -1.9469300000 	    0.0122760000
C   	    1.1995440000 	    1.1694760000 	   -0.0306120000
O   	    2.3967220000 	    1.7574860000 	   -0.0614910000
O   	    0.2367420000 	    2.1062560000 	   -0.0337800000
C   	   -1.1284770000 	    1.8015200000 	   -0.0100230000
O   	   -1.8861160000 	    2.7299160000 	   -0.0055700000
O   	    1.9322920000 	   -2.3253220000 	   -0.2612650000
H   	    3.5902660000 	   -0.0540240000 	    1.1507090000
H   	    3.9254530000 	   -0.0860960000 	   -0.5764910000
H   	    4.1438320000 	   -1.5751400000 	    0.3793680000
H   	   -3.5327740000 	    0.8374790000 	    0.0401800000
H   	   -4.2299230000 	   -1.5670230000 	    0.0760880000
H   	   -2.4667420000 	   -3.3246400000 	    0.0589830000
H   	   -0.0915330000 	   -2.7255740000 	   -0.0093260000
H   	    2.2502960000 	    2.7165620000 	   -0.0728100000
