21
tauto -611.411427614
C   	    3.1510910000 	    0.7902630000 	   -0.0003830000
C   	    1.7403570000 	    0.2684990000 	   -0.0003770000
C   	    1.5568940000 	   -1.1815370000 	    0.0001640000
O   	    0.2617270000 	   -1.6598060000 	   -0.0003790000
C   	   -0.8214970000 	   -0.8374200000 	   -0.0002140000
C   	   -0.6912560000 	    0.5512870000 	   -0.0000030000
C   	   -1.8442250000 	    1.3471900000 	    0.0002790000
C   	   -3.0949280000 	    0.7566360000 	    0.0002360000
C   	   -3.2080300000 	   -0.6387630000 	   -0.0000430000
C   	   -2.0786220000 	   -1.4398560000 	   -0.0002740000
O   	    2.4472540000 	   -1.9951170000 	    0.0008500000
C   	    0.6585130000 	    1.0838430000 	   -0.0001660000
O   	    0.7404180000 	    2.4290880000 	    0.0001730000
H   	    3.8429950000 	   -0.0537880000 	   -0.0017300000
H   	    3.3674540000 	    1.3949730000 	    0.8905400000
H   	    3.3665380000 	    1.3973060000 	   -0.8899350000
H   	   -1.7346750000 	    2.4272630000 	    0.0004850000
H   	   -3.9880280000 	    1.3746350000 	    0.0004400000
H   	   -4.1908580000 	   -1.1022840000 	   -0.0000930000
H   	   -2.1401130000 	   -2.5234930000 	   -0.0004970000
H   	    1.6717130000 	    2.6912150000 	    0.0003300000
