23
tauto -649.725093689
C   	   -1.1455270000 	    3.3327160000 	   -0.0051180000
C   	    0.0044930000 	    2.3300110000 	   -0.0210320000
C   	   -0.3827370000 	    0.8646300000 	   -0.0045660000
C   	    0.6184520000 	   -0.1974390000 	   -0.0046870000
C   	    2.0755380000 	   -0.0820080000 	    0.0015940000
C   	    2.8250420000 	    1.2294690000 	    0.0299600000
O   	    2.7905260000 	   -1.1026570000 	   -0.0086660000
C   	    0.1175240000 	   -1.5111670000 	   -0.0063300000
O   	    0.8438040000 	   -2.5827120000 	   -0.0122090000
O   	   -1.1692850000 	   -1.8067500000 	   -0.0004080000
C   	   -1.6992840000 	    0.5384150000 	    0.0027720000
C   	   -2.1805450000 	   -0.8203090000 	    0.0083010000
O   	   -3.3123970000 	   -1.2121490000 	    0.0169380000
H   	   -0.7400530000 	    4.3488580000 	   -0.0152650000
H   	   -1.7619890000 	    3.2290910000 	    0.8933610000
H   	   -1.7925970000 	    3.2244800000 	   -0.8811960000
H   	    0.6537920000 	    2.5298840000 	    0.8380590000
H   	    0.6167580000 	    2.5147150000 	   -0.9109750000
H   	    2.6042390000 	    1.7983780000 	    0.9372870000
H   	    2.5864500000 	    1.8574110000 	   -0.8317620000
H   	    3.8887210000 	    0.9883630000 	    0.0127620000
H   	    1.8066720000 	   -2.2488810000 	   -0.0156720000
H   	   -2.4809060000 	    1.2859360000 	    0.0028030000
