15
tauto -457.817753318
C   	   -2.8581190000 	   -0.0221720000 	   -0.0000400000
C   	   -1.3615130000 	    0.0491410000 	    0.0000020000
C   	   -0.6246970000 	   -1.2550930000 	    0.0001190000
C   	    0.8867920000 	   -1.1764210000 	   -0.0000050000
O   	    1.4785010000 	    0.0559910000 	    0.0000140000
O   	    1.5821340000 	   -2.1504590000 	   -0.0000900000
C   	   -0.6846620000 	    1.1986430000 	   -0.0000460000
C   	    0.7851430000 	    1.2571110000 	    0.0000030000
O   	    1.4245510000 	    2.2698090000 	    0.0000270000
H   	   -3.2168850000 	   -0.5671550000 	   -0.8814780000
H   	   -3.3085360000 	    0.9734680000 	   -0.0000930000
H   	   -3.2169380000 	   -0.5670860000 	    0.8814190000
H   	   -0.9109490000 	   -1.8580550000 	   -0.8711260000
H   	   -0.9108170000 	   -1.8577940000 	    0.8715910000
H   	   -1.1750240000 	    2.1666490000 	   -0.0001140000
