20
tauto -610.412860509
C   	    2.9133370000 	    1.0328020000 	    0.0930140000
C   	    1.9972670000 	   -0.1658690000 	    0.0059690000
C   	    0.5201600000 	   -0.0635170000 	   -0.0122200000
C   	   -0.2799540000 	   -1.2982430000 	   -0.0073550000
O   	    0.3061010000 	   -2.4878680000 	   -0.0187910000
C   	   -1.6417370000 	   -1.2526160000 	    0.0119790000
C   	   -0.1871840000 	    1.1155260000 	   -0.0272860000
C   	    0.3275380000 	    2.5283580000 	   -0.0625660000
O   	   -1.5134760000 	    1.1398440000 	   -0.0156650000
C   	   -2.3543420000 	   -0.0206050000 	    0.0204100000
O   	   -3.5332190000 	    0.1977230000 	    0.0458910000
O   	    2.5369780000 	   -1.2721720000 	   -0.0401890000
H   	    2.6625320000 	    1.6878080000 	    0.9308140000
H   	    2.8776360000 	    1.6251460000 	   -0.8265070000
H   	    3.9264220000 	    0.6494480000 	    0.2219490000
H   	    1.2827920000 	   -2.3450310000 	   -0.0442670000
H   	   -2.2155290000 	   -2.1704970000 	    0.0190320000
H   	    1.0423640000 	    2.6878820000 	   -0.8713750000
H   	    0.8089410000 	    2.8003280000 	    0.8812890000
H   	   -0.5267490000 	    3.1896890000 	   -0.2125760000
