13
tauto -398.657814421
O   	    2.2330060000 	   -1.0978920000 	   -0.0006850000
C   	    1.2242110000 	   -0.4278790000 	    0.0000720000
C   	    1.2549710000 	    1.0882510000 	    0.0000510000
C   	   -0.0794590000 	    1.7667070000 	   -0.0000160000
C   	   -1.2321070000 	    1.0995720000 	   -0.0000180000
N   	   -0.0297490000 	   -1.0136160000 	    0.0012560000
C   	   -1.2734330000 	   -0.3796400000 	    0.0001250000
O   	   -2.2980590000 	   -1.0271140000 	   -0.0006420000
H   	    1.8452260000 	    1.3978290000 	   -0.8713630000
H   	    1.8451990000 	    1.3978940000 	    0.8714630000
H   	   -0.0782570000 	    2.8546760000 	   -0.0001020000
H   	   -2.1995490000 	    1.5898910000 	   -0.0002100000
H   	   -0.0490400000 	   -2.0269980000 	    0.0007520000
