11
tauto -343.272572472
O   	   -2.3652130000 	   -0.4616420000 	   -0.0005170000
C   	   -1.1983960000 	   -0.1508390000 	    0.0000900000
C   	    0.0000000000 	   -1.0896660000 	    0.0005570000
C   	   -0.6683650000 	    1.2492570000 	    0.0001140000
C   	    0.6683650000 	    1.2492570000 	    0.0001830000
C   	    1.1983960000 	   -0.1508390000 	   -0.0001550000
O   	    2.3652130000 	   -0.4616420000 	   -0.0004520000
H   	   -0.0000560000 	   -1.7375640000 	   -0.8815520000
H   	    0.0000540000 	   -1.7354700000 	    0.8842670000
H   	   -1.3313810000 	    2.1081460000 	    0.0000900000
H   	    1.3313820000 	    2.1081450000 	    0.0002140000
