22
tauto -665.793234973
C   	   -4.1876210000 	    0.1567700000 	    0.9062910000
C   	   -3.5622120000 	    0.3967640000 	   -0.4537150000
O   	   -2.1425690000 	    0.6257500000 	   -0.3404440000
C   	   -1.3766510000 	   -0.4637040000 	   -0.2413410000
C   	    0.0815200000 	   -0.1432650000 	   -0.1220380000
C   	    0.9869820000 	   -1.3346330000 	   -0.0344980000
C   	    2.4634890000 	   -1.0274860000 	    0.0918950000
N   	    2.8172560000 	    0.3141290000 	    0.1098080000
O   	    3.3040680000 	   -1.8942590000 	    0.1731700000
C   	    0.5312390000 	    1.1123130000 	   -0.0937320000
C   	    1.9762210000 	    1.4189260000 	    0.0279890000
O   	    2.4159110000 	    2.5480520000 	    0.0560870000
O   	   -1.7910320000 	   -1.6012680000 	   -0.2492180000
H   	   -5.2728850000 	    0.0580610000 	    0.8012170000
H   	   -3.9805040000 	    0.9930770000 	    1.5807090000
H   	   -3.8007650000 	   -0.7646800000 	    1.3495710000
H   	   -3.9437590000 	    1.3079050000 	   -0.9190760000
H   	   -3.7261630000 	   -0.4508750000 	   -1.1238110000
H   	    0.8544800000 	   -1.9778560000 	   -0.9119250000
H   	    0.7035760000 	   -1.9655400000 	    0.8156930000
H   	    3.8076030000 	    0.5127180000 	    0.1940000000
H   	   -0.1312040000 	    1.9679690000 	   -0.1568920000
