13
tauto -344.500648228
O   	   -2.3643310000 	   -0.5729160000 	   -0.0001130000
C   	   -1.2137120000 	   -0.2109100000 	   -0.0000220000
C   	   -0.7660440000 	    1.2530270000 	   -0.0006850000
C   	    0.7660680000 	    1.2530240000 	    0.0008530000
C   	   -0.0000100000 	   -1.1254710000 	    0.0005680000
C   	    1.2137060000 	   -0.2109200000 	    0.0000840000
O   	    2.3643220000 	   -0.5729350000 	   -0.0007850000
H   	   -1.2009960000 	    1.7446800000 	    0.8756860000
H   	   -1.1990760000 	    1.7431680000 	   -0.8788660000
H   	    1.1989910000 	    1.7429450000 	    0.8792240000
H   	    1.2011430000 	    1.7448910000 	   -0.8753260000
H   	    0.0000160000 	   -1.7810600000 	   -0.8776890000
H   	   -0.0000530000 	   -1.7803110000 	    0.8793720000
