19
tauto -552.278949335
O   	   -3.2658640000 	   -1.0697490000 	   -0.0012040000
C   	   -2.1357590000 	   -0.6340730000 	   -0.0002520000
C   	   -0.9202780000 	   -1.5364140000 	    0.0011430000
C   	    0.4260690000 	   -0.8598840000 	    0.0003500000
C   	    0.5337170000 	    0.5312930000 	    0.0001880000
C   	    1.7839110000 	    1.1527870000 	   -0.0002230000
C   	    2.9380490000 	    0.3862680000 	   -0.0004930000
C   	    2.8395400000 	   -1.0056250000 	   -0.0003710000
C   	    1.5950520000 	   -1.6219080000 	    0.0000480000
N   	   -1.8980520000 	    0.7302700000 	    0.0000400000
C   	   -0.6761060000 	    1.3961910000 	    0.0002690000
O   	   -0.6403390000 	    2.6091070000 	    0.0003700000
H   	   -1.0230100000 	   -2.1934440000 	   -0.8705980000
H   	   -1.0231300000 	   -2.1905320000 	    0.8750920000
H   	    1.8184370000 	    2.2383020000 	   -0.0003440000
H   	    3.9127550000 	    0.8657870000 	   -0.0008230000
H   	    3.7407240000 	   -1.6135140000 	   -0.0006100000
H   	    1.5254420000 	   -2.7079170000 	    0.0001500000
H   	   -2.7203920000 	    1.3227540000 	   -0.0004350000
