11
tauto -380.409099913
O   	    2.3630480000 	   -0.5106500000 	   -0.0002800000
C   	    1.1992170000 	   -0.2050780000 	    0.0000090000
C   	   -0.0093660000 	   -1.1112410000 	    0.0002000000
C   	    0.6694460000 	    1.2245340000 	    0.0003480000
O   	   -0.7511720000 	    1.1290510000 	   -0.0003920000
C   	   -1.1913120000 	   -0.1596420000 	   -0.0000670000
O   	   -2.3559490000 	   -0.4315350000 	    0.0000010000
H   	   -0.0318140000 	   -1.7587220000 	    0.8821890000
H   	   -0.0319230000 	   -1.7591890000 	   -0.8814370000
H   	    1.0046230000 	    1.7662940000 	   -0.8899550000
H   	    1.0037880000 	    1.7652500000 	    0.8916330000
