17
tauto -496.89442005
O   	   -1.5638220000 	   -2.3749420000 	   -0.0002760000
C   	   -1.2346070000 	   -1.2118890000 	   -0.0002000000
C   	   -2.1648470000 	    0.0000010000 	    0.0004320000
C   	    0.1660590000 	   -0.6956580000 	    0.0000250000
C   	    1.3541180000 	   -1.4175900000 	   -0.0000060000
C   	    2.5458350000 	   -0.7010300000 	    0.0000000000
C   	    2.5458350000 	    0.7010290000 	    0.0000170000
C   	    1.3541180000 	    1.4175900000 	    0.0000570000
C   	    0.1660590000 	    0.6956580000 	    0.0001050000
C   	   -1.2346060000 	    1.2118890000 	    0.0003210000
O   	   -1.5638200000 	    2.3749420000 	   -0.0005420000
H   	   -2.8138520000 	   -0.0001410000 	    0.8824980000
H   	   -2.8154010000 	    0.0001450000 	   -0.8804390000
H   	    1.3367440000 	   -2.5039700000 	   -0.0000980000
H   	    3.4945560000 	   -1.2313550000 	   -0.0000450000
H   	    3.4945550000 	    1.2313550000 	    0.0000140000
H   	    1.3367460000 	    2.5039690000 	    0.0001070000
