15
tauto -494.892879342
C   	   -2.1780990000 	   -0.9888460000 	    0.6203530000
C   	   -1.1323180000 	   -0.6007530000 	   -0.4127290000
C   	   -0.5351950000 	    0.7613710000 	   -0.1907720000
O   	   -1.2436320000 	    1.9171670000 	   -0.1603700000
C   	    0.7747700000 	    0.6467920000 	    0.0295860000
O   	    1.7219540000 	    1.5704000000 	    0.2970520000
O   	   -0.0148710000 	   -1.4841770000 	   -0.3269060000
C   	    1.1343770000 	   -0.7835260000 	   -0.0562500000
O   	    2.2011440000 	   -1.3119470000 	    0.0704430000
H   	   -3.0442720000 	   -0.3185490000 	    0.5725810000
H   	   -1.7461540000 	   -0.9307490000 	    1.6235950000
H   	   -2.5248290000 	   -2.0097930000 	    0.4407530000
H   	   -1.5461960000 	   -0.6919790000 	   -1.4269990000
H   	   -2.1364690000 	    1.7686850000 	   -0.4958830000
H   	    1.2999570000 	    2.4406100000 	    0.3030710000
