17
tauto -513.1685306
C   	    2.4396530000 	    1.0693980000 	    0.0001250000
C   	    1.5643710000 	   -0.1496530000 	   -0.0002100000
C   	    0.1184290000 	    0.0109470000 	   -0.0001450000
C   	   -0.7061660000 	    1.2428190000 	   -0.0001100000
N   	   -2.0151310000 	    0.8065960000 	   -0.0001650000
C   	   -2.1552400000 	   -0.6308540000 	    0.0001530000
O   	   -0.3439780000 	    2.4043730000 	   -0.0000550000
C   	   -0.7153690000 	   -1.0621910000 	    0.0000360000
O   	   -0.3884200000 	   -2.3330400000 	    0.0001020000
O   	    2.0368030000 	   -1.2928510000 	   -0.0001810000
H   	    2.2097860000 	    1.6927490000 	   -0.8698340000
H   	    3.4886460000 	    0.7689980000 	   -0.0042650000
H   	    2.2161250000 	    1.6863870000 	    0.8763770000
H   	   -2.7841880000 	    1.4561310000 	    0.0003550000
H   	   -2.6710350000 	   -1.0139220000 	   -0.8894580000
H   	   -2.6707730000 	   -1.0135740000 	    0.8900680000
H   	    0.6080420000 	   -2.3335940000 	   -0.0001050000
