13
tauto -493.680990573
O   	    1.4736420000 	   -1.9333140000 	    0.0000390000
C   	    1.0005810000 	   -0.6870090000 	    0.0000670000
C   	    1.8823230000 	    0.5313100000 	   -0.0000150000
O   	    0.9870430000 	    1.6190740000 	   -0.0000320000
C   	   -0.2909260000 	   -0.3161860000 	    0.0000220000
C   	   -1.4584030000 	   -1.2113940000 	   -0.0001820000
O   	   -2.6082020000 	   -0.8400190000 	    0.0001000000
C   	   -0.3253410000 	    1.1662120000 	    0.0002450000
O   	   -1.2435160000 	    1.9277450000 	   -0.0002450000
H   	    2.4406430000 	   -1.9349080000 	   -0.0000070000
H   	    2.5202060000 	    0.5700840000 	   -0.8926590000
H   	    2.5202830000 	    0.5701790000 	    0.8925680000
H   	   -1.2022660000 	   -2.2908390000 	    0.0003780000
