19
tauto -572.306243045
C   	   -2.9605360000 	   -0.1814090000 	    0.7156100000
C   	   -1.9211030000 	    0.0081770000 	   -0.3656860000
O   	   -1.3196680000 	    1.3280230000 	   -0.2682890000
C   	   -0.0069480000 	    1.1604400000 	   -0.1190430000
O   	    0.6801900000 	    2.2850940000 	   -0.0159520000
C   	    0.4559330000 	   -0.1243430000 	   -0.0911160000
C   	    1.8442680000 	   -0.6014130000 	    0.0707190000
C   	    2.9367910000 	    0.4365170000 	    0.2395330000
O   	    2.0967680000 	   -1.7891250000 	    0.0695130000
C   	   -0.7345420000 	   -0.9637880000 	   -0.2348140000
O   	   -0.8774490000 	   -2.1644430000 	   -0.2415400000
H   	   -3.7956930000 	    0.5136060000 	    0.5939380000
H   	   -2.5132650000 	   -0.0353860000 	    1.7038110000
H   	   -3.3321070000 	   -1.2081890000 	    0.6539990000
H   	   -2.3559850000 	   -0.0636310000 	   -1.3672430000
H   	    0.0581060000 	    3.0279600000 	   -0.0752120000
H   	    2.7636800000 	    1.0406480000 	    1.1367980000
H   	    2.9600820000 	    1.1254990000 	   -0.6113680000
H   	    3.8932890000 	   -0.0819880000 	    0.3242010000
