19
tauto -572.308615438
C   	    2.8203930000 	   -0.5684270000 	    0.7365080000
C   	    1.8458090000 	   -0.1618610000 	   -0.3607860000
C   	    0.4946790000 	   -0.8181790000 	   -0.2322140000
O   	    0.3553980000 	   -2.1472880000 	   -0.2632930000
C   	   -0.4683030000 	    0.1061160000 	   -0.0754170000
C   	   -1.9339200000 	   -0.0739110000 	    0.1059930000
C   	   -2.4667750000 	   -1.4903570000 	    0.0723600000
O   	   -2.6635980000 	    0.8787960000 	    0.2738910000
O   	    1.5623760000 	    1.2202560000 	   -0.2811760000
C   	    0.2031080000 	    1.4323170000 	   -0.1094440000
O   	   -0.2392960000 	    2.5369690000 	   -0.0186150000
H   	    3.0679760000 	   -1.6353750000 	    0.6803130000
H   	    2.3869870000 	   -0.3577410000 	    1.7184260000
H   	    3.7488630000 	   -0.0019340000 	    0.6328240000
H   	    2.2726030000 	   -0.3737360000 	   -1.3519810000
H   	    1.2181520000 	   -2.5694540000 	   -0.3800760000
H   	   -2.0111040000 	   -2.0950820000 	    0.8636960000
H   	   -2.2233590000 	   -1.9753330000 	   -0.8789800000
H   	   -3.5491000000 	   -1.4553950000 	    0.2073170000
