22
tauto -462.404272791
C   	    2.7593190000 	    0.6340070000 	    0.0162350000
C   	    1.7616650000 	   -0.5039210000 	    0.0313910000
C   	    0.2925290000 	   -0.2561940000 	   -0.0042500000
C   	   -0.5507780000 	   -1.5155110000 	    0.0199470000
C   	   -2.0073290000 	   -1.2776370000 	   -0.3680890000
C   	   -2.5657180000 	   -0.0689950000 	    0.3759220000
C   	   -1.7796690000 	    1.1815880000 	   -0.0104530000
C   	   -0.2876800000 	    0.9592340000 	   -0.0319890000
O   	    0.4474140000 	    2.1046250000 	   -0.1072690000
O   	    2.1610690000 	   -1.6569380000 	    0.0824570000
H   	    2.6585470000 	    1.2296370000 	   -0.8958970000
H   	    3.7600500000 	    0.2015690000 	    0.0746860000
H   	    2.5919880000 	    1.3169510000 	    0.8540780000
H   	   -0.4974520000 	   -1.9652050000 	    1.0213120000
H   	   -0.0879400000 	   -2.2487920000 	   -0.6474820000
H   	   -2.6026440000 	   -2.1718330000 	   -0.1518270000
H   	   -2.0798630000 	   -1.1002370000 	   -1.4502550000
H   	   -2.4756690000 	   -0.2349880000 	    1.4572970000
H   	   -3.6293000000 	    0.0811950000 	    0.1601710000
H   	   -1.9986470000 	    2.0004690000 	    0.6908530000
H   	   -2.0887460000 	    1.5334700000 	   -1.0063130000
H   	   -0.1522250000 	    2.8608310000 	   -0.0804120000
