17
tauto -571.117196654
C   	   -2.5777110000 	   -1.0404290000 	   -0.0001760000
C   	   -1.6787880000 	    0.1632770000 	   -0.0000410000
C   	   -0.2179550000 	    0.0259950000 	   -0.0000020000
C   	    0.4172750000 	   -1.2788340000 	    0.0000720000
O   	    1.8231260000 	   -1.2835910000 	   -0.0001010000
C   	    2.5379450000 	   -0.1548020000 	   -0.0001230000
C   	    2.0011150000 	    1.0756790000 	   -0.0000380000
O   	   -0.1082460000 	   -2.3618640000 	    0.0002630000
C   	    0.5708080000 	    1.1799190000 	    0.0000350000
O   	    0.0696460000 	    2.3904900000 	    0.0001300000
O   	   -2.1882390000 	    1.2941220000 	   -0.0000040000
H   	   -2.3795610000 	   -1.6693160000 	   -0.8723380000
H   	   -3.6118400000 	   -0.6920050000 	   -0.0006790000
H   	   -2.3803070000 	   -1.6688510000 	    0.8724960000
H   	    3.6045580000 	   -0.3551440000 	   -0.0002240000
H   	    2.6110850000 	    1.9698330000 	   -0.0000340000
H   	   -0.9303620000 	    2.2773930000 	    0.0001110000
