19
tauto -423.094622813
C   	    2.4302910000 	    0.8073110000 	    0.0940080000
C   	    1.5453780000 	   -0.4275730000 	   -0.0005470000
C   	    0.0859670000 	   -0.2764230000 	   -0.0209190000
C   	   -0.8041140000 	   -1.4979680000 	   -0.0994130000
C   	   -2.2082190000 	   -0.9464090000 	    0.2254160000
C   	   -2.1412910000 	    0.5531900000 	   -0.1119650000
C   	   -0.6692940000 	    0.8444410000 	   -0.0310240000
O   	   -0.3277110000 	    2.1451640000 	   -0.0155780000
O   	    2.0539630000 	   -1.5348150000 	   -0.0583190000
H   	    2.2004570000 	    1.3965760000 	    0.9914390000
H   	    2.3151040000 	    1.4425610000 	   -0.7947550000
H   	    3.4722570000 	    0.4872100000 	    0.1487290000
H   	   -0.4839530000 	   -2.2787900000 	    0.5970770000
H   	   -0.7596660000 	   -1.9402620000 	   -1.1035970000
H   	   -2.4067200000 	   -1.0655310000 	    1.2960450000
H   	   -3.0053880000 	   -1.4642980000 	   -0.3151750000
H   	   -2.7154020000 	    1.1904310000 	    0.5687780000
H   	   -2.4930520000 	    0.7712850000 	   -1.1295580000
H   	    0.6340460000 	    2.2386180000 	   -0.0011310000
