13
tauto -584.85216469
O   	    1.9660030000 	   -1.4528910000 	    0.0000020000
N   	    1.5445210000 	   -0.3220060000 	    0.0000070000
C   	    0.1422760000 	   -0.0833180000 	    0.0000030000
C   	   -0.9349700000 	   -1.0926140000 	   -0.0000100000
O   	   -2.1173240000 	   -0.3861590000 	    0.0000010000
C   	   -1.8860290000 	    1.0140310000 	    0.0000050000
O   	   -0.8975170000 	   -2.2847580000 	   -0.0000020000
C   	   -0.3958170000 	    1.1574230000 	    0.0000000000
O   	    0.1799800000 	    2.3296470000 	   -0.0000030000
O   	    2.2618720000 	    0.6943000000 	   -0.0000020000
H   	   -2.3304050000 	    1.4670980000 	    0.8921410000
H   	   -2.3304120000 	    1.4671020000 	   -0.8921260000
H   	    1.1522970000 	    2.1455980000 	   -0.0000210000
