13
tauto -584.852164751
O   	    1.9660760000 	   -1.4525120000 	   -0.0000100000
N   	    1.5445630000 	   -0.3216720000 	   -0.0000150000
C   	    0.1423710000 	   -0.0832850000 	   -0.0000720000
C   	   -0.9345290000 	   -1.0927850000 	   -0.0001660000
O   	   -2.1172130000 	   -0.3865300000 	    0.0000260000
C   	   -1.8861020000 	    1.0137830000 	    0.0000360000
O   	   -0.8969800000 	   -2.2848990000 	    0.0000460000
C   	   -0.3961140000 	    1.1573090000 	   -0.0000460000
O   	    0.1794090000 	    2.3295000000 	   -0.0000350000
O   	    2.2616860000 	    0.6947280000 	    0.0001690000
H   	   -2.3305710000 	    1.4667730000 	    0.8921740000
H   	   -2.3306850000 	    1.4667960000 	   -0.8920330000
H   	    1.1517390000 	    2.1457160000 	   -0.0001000000
