30
tauto -783.469418511
C   	   -4.6201120000 	    1.0389250000 	    0.1575790000
C   	   -3.6934680000 	   -0.1412140000 	    0.1250730000
C   	   -2.2748650000 	    0.0703470000 	   -0.1175800000
C   	   -1.5195910000 	    1.3228900000 	   -0.3581120000
N   	   -0.1981360000 	    0.9389320000 	   -0.4706410000
C   	    0.0066590000 	   -0.4943170000 	   -0.4196420000
C   	    0.9871810000 	   -0.9419680000 	    0.6759240000
C   	    2.3850470000 	   -0.4380880000 	    0.4073520000
C   	    2.8157690000 	    0.7864910000 	    0.9221750000
C   	    4.0888960000 	    1.2702440000 	    0.6331240000
C   	    4.9481400000 	    0.5343920000 	   -0.1771310000
C   	    4.5282850000 	   -0.6874240000 	   -0.6959260000
C   	    3.2558320000 	   -1.1678230000 	   -0.4049190000
O   	   -1.9401020000 	    2.4617390000 	   -0.4417240000
C   	   -1.3991050000 	   -0.9676000000 	   -0.1644290000
O   	   -1.6587070000 	   -2.2439020000 	    0.0030510000
O   	   -4.1020750000 	   -1.2960800000 	    0.2985710000
H   	   -4.5542700000 	    1.5899940000 	   -0.7857530000
H   	   -4.3029620000 	    1.7398040000 	    0.9364040000
H   	   -5.6411490000 	    0.6988230000 	    0.3379680000
H   	    0.5098050000 	    1.5869480000 	   -0.7791580000
H   	    0.3479710000 	   -0.8859160000 	   -1.3895360000
H   	    0.9728120000 	   -2.0371320000 	    0.7191110000
H   	    0.6192800000 	   -0.5660770000 	    1.6374600000
H   	    2.1478280000 	    1.3626100000 	    1.5600110000
H   	    4.4110920000 	    2.2224890000 	    1.0467480000
H   	    5.9433520000 	    0.9099540000 	   -0.4001890000
H   	    5.1950850000 	   -1.2709460000 	   -1.3256400000
H   	    2.9346090000 	   -2.1269330000 	   -0.8086120000
H   	   -2.6414360000 	   -2.2793350000 	    0.1655680000
