26
tauto -631.09311821
C   	    3.3837790000 	   -1.0525200000 	    0.4547520000
C   	    2.4027280000 	    0.1215020000 	    0.4540350000
C   	    3.1334870000 	    1.4290730000 	    0.1447960000
C   	    1.2603910000 	   -0.1132710000 	   -0.5544070000
C   	    0.0697150000 	    0.8556690000 	   -0.3494820000
C   	   -1.1013150000 	    0.0295840000 	   -0.0947120000
C   	   -2.3995540000 	    0.3855300000 	    0.1579500000
C   	   -2.8935610000 	    1.7881420000 	    0.2451100000
O   	   -3.3224990000 	   -0.5365950000 	    0.3460130000
O   	    0.1638730000 	    2.0690040000 	   -0.3976870000
N   	    0.6250800000 	   -1.4183070000 	   -0.4246370000
C   	   -0.7064070000 	   -1.3770520000 	   -0.1711020000
O   	   -1.4541380000 	   -2.3530060000 	   -0.0332500000
H   	    4.2143090000 	   -0.8514230000 	    1.1396810000
H   	    3.8112900000 	   -1.2063980000 	   -0.5450830000
H   	    2.9122630000 	   -1.9862070000 	    0.7794500000
H   	    1.9479780000 	    0.1919990000 	    1.4525770000
H   	    3.6359170000 	    1.3642510000 	   -0.8292710000
H   	    3.9006130000 	    1.6228630000 	    0.9022400000
H   	    2.4437960000 	    2.2753880000 	    0.1143720000
H   	    1.6496050000 	    0.0260700000 	   -1.5741960000
H   	   -2.0777360000 	    2.4933790000 	    0.0828500000
H   	   -3.3453980000 	    1.9490190000 	    1.2293930000
H   	   -3.6782530000 	    1.9392550000 	   -0.5034740000
H   	   -2.8797460000 	   -1.4287050000 	    0.2574170000
H   	    1.0963420000 	   -2.2965100000 	   -0.5757560000
