20
tauto -610.391867432
C   	    3.6361710000 	   -0.3955970000 	    0.5242390000
C   	    2.5013770000 	   -0.2598330000 	   -0.4800460000
C   	    1.2461570000 	    0.3190850000 	    0.1207570000
C   	    0.0090090000 	    0.3192660000 	   -0.7994280000
C   	   -0.9809380000 	    1.3930520000 	   -0.3462940000
C   	   -1.9610280000 	    0.7850850000 	    0.6414460000
C   	   -1.9433790000 	   -0.7030600000 	    0.3584820000
O   	   -2.7169120000 	   -1.5460470000 	    0.7220500000
O   	   -0.9783840000 	    2.5310270000 	   -0.7369670000
C   	   -0.7075290000 	   -1.0036320000 	   -0.5394760000
O   	   -0.3796610000 	   -2.0954590000 	   -0.9180400000
O   	    1.1532430000 	    0.7102770000 	    1.2623410000
H   	    4.5276390000 	   -0.8044730000 	    0.0404640000
H   	    3.3527120000 	   -1.0610360000 	    1.3444470000
H   	    3.8896150000 	    0.5750100000 	    0.9590090000
H   	    2.2263990000 	   -1.2264580000 	   -0.9268900000
H   	    2.7847720000 	    0.3836150000 	   -1.3251670000
H   	    0.3018410000 	    0.4294290000 	   -1.8472160000
H   	   -2.9573380000 	    1.2297890000 	    0.5931400000
H   	   -1.5509670000 	    0.9495460000 	    1.6490530000
