16
tauto -495.848896285
C   	    2.5528230000 	    0.6127370000 	    0.0000360000
C   	    1.4994310000 	   -0.4896410000 	   -0.0001260000
C   	    0.0839720000 	   -0.0896310000 	   -0.0000360000
C   	   -1.0692290000 	   -1.0500970000 	   -0.0000120000
C   	   -2.3307430000 	   -0.2035610000 	   -0.0000060000
C   	   -1.9692230000 	    1.0768420000 	    0.0000090000
O   	   -1.0520630000 	   -2.2551510000 	    0.0000360000
C   	   -0.4817530000 	    1.1487070000 	   -0.0000030000
O   	    0.0476600000 	    2.3697240000 	    0.0000200000
O   	    1.8424300000 	   -1.6540830000 	    0.0000140000
H   	    2.4718670000 	    1.2407610000 	    0.8977870000
H   	    2.4715530000 	    1.2415480000 	   -0.8971360000
H   	    3.5398250000 	    0.1472610000 	   -0.0003450000
H   	   -3.3254440000 	   -0.6316490000 	    0.0000530000
H   	   -2.5883640000 	    1.9663600000 	   -0.0000650000
H   	    1.0146800000 	    2.3196650000 	   -0.0000290000
