15
tauto -457.779365927
O   	   -1.1994050000 	   -2.0869820000 	   -0.0002440000
C   	   -0.9167800000 	   -0.7811260000 	   -0.0001930000
C   	   -2.0088320000 	    0.2552190000 	   -0.0008220000
C   	   -1.2435980000 	    1.5842730000 	    0.0014490000
C   	    0.3365730000 	   -0.2727580000 	    0.0000590000
C   	    1.5640680000 	   -1.0836100000 	    0.0001480000
O   	    2.6876930000 	   -0.6349160000 	    0.0003920000
C   	    0.2480780000 	    1.2062530000 	   -0.0000040000
O   	    1.1490660000 	    2.0091660000 	   -0.0008290000
H   	   -2.1572520000 	   -2.2187380000 	   -0.0004060000
H   	   -2.6492060000 	    0.1282790000 	    0.8813160000
H   	   -2.6459460000 	    0.1298780000 	   -0.8855610000
H   	   -1.4551390000 	    2.1941480000 	    0.8840940000
H   	   -1.4564230000 	    2.1985880000 	   -0.8777510000
H   	    1.3880850000 	   -2.1798110000 	   -0.0000650000
