22
tauto -649.503571913
C   	    3.4740380000 	    1.1033130000 	    0.0073230000
C   	    2.6008700000 	   -0.1192190000 	   -0.0025840000
C   	    1.1606200000 	    0.0314410000 	   -0.0000560000
C   	    0.3140720000 	    1.2419560000 	   -0.0017990000
C   	   -1.1121400000 	    0.7334170000 	   -0.0003780000
C   	   -1.0878440000 	   -0.6642780000 	    0.0014200000
C   	   -2.2507660000 	   -1.4097260000 	    0.0025610000
C   	   -3.4638560000 	   -0.7104570000 	    0.0018970000
C   	   -3.4902470000 	    0.6817730000 	   -0.0001030000
C   	   -2.3030390000 	    1.4263160000 	   -0.0013200000
O   	    0.6515260000 	    2.4077640000 	   -0.0048090000
C   	    0.3331970000 	   -1.0703000000 	    0.0006540000
O   	    0.7080690000 	   -2.3207390000 	    0.0001220000
O   	    3.0895040000 	   -1.2592710000 	   -0.0071780000
H   	    3.2036780000 	    1.7711480000 	   -0.8161500000
H   	    4.5212460000 	    0.8047600000 	   -0.0639050000
H   	    3.3046770000 	    1.6700040000 	    0.9291130000
H   	   -2.2244340000 	   -2.4957710000 	    0.0038380000
H   	   -4.3997050000 	   -1.2626950000 	    0.0028010000
H   	   -4.4472760000 	    1.1967270000 	   -0.0008070000
H   	   -2.3102380000 	    2.5129280000 	   -0.0031050000
H   	    1.7098220000 	   -2.2845500000 	   -0.0025650000
