36
tauto -991.147725209
C   	   -4.5214520000 	    1.0375840000 	    0.5063940000
C   	   -3.6616270000 	   -0.0722480000 	   -0.0105920000
O   	   -4.2902520000 	   -1.1496610000 	   -0.4830390000
C   	   -2.3053290000 	   -0.0477570000 	   -0.0238860000
C   	   -1.4277020000 	   -1.1333010000 	   -0.4825350000
N   	   -0.1106270000 	   -0.6468330000 	   -0.3392630000
C   	    0.9454080000 	   -1.5252420000 	    0.0513350000
C   	    1.1942370000 	   -2.6583240000 	   -0.7243160000
C   	    2.2139000000 	   -3.5280710000 	   -0.3552820000
C   	    2.9998730000 	   -3.2671230000 	    0.7632740000
C   	    2.7536310000 	   -2.1269470000 	    1.5206950000
C   	    1.7273180000 	   -1.2551880000 	    1.1738550000
N   	   -0.1389470000 	    0.6340210000 	    0.2578120000
C   	    0.9073710000 	    1.5444030000 	   -0.0797610000
C   	    1.7269620000 	    1.3102230000 	   -1.1832540000
C   	    2.7460840000 	    2.2076160000 	   -1.4821660000
C   	    2.9488440000 	    3.3363390000 	   -0.6949040000
C   	    2.1263160000 	    3.5600470000 	    0.4050760000
C   	    1.1121920000 	    2.6649760000 	    0.7259440000
O   	   -1.7015650000 	   -2.2466070000 	   -0.8724830000
C   	   -1.4586360000 	    1.0667970000 	    0.4206250000
O   	   -1.7645980000 	    2.1771670000 	    0.8191380000
H   	   -5.2009380000 	    1.3759410000 	   -0.2853770000
H   	   -3.9089380000 	    1.8761930000 	    0.8385610000
H   	   -5.1285050000 	    0.6718940000 	    1.3437050000
H   	   -5.2467290000 	   -1.0245500000 	   -0.4085650000
H   	    0.5783780000 	   -2.8571550000 	   -1.5933100000
H   	    2.3982480000 	   -4.4144760000 	   -0.9567110000
H   	    3.8016040000 	   -3.9464220000 	    1.0400760000
H   	    3.3613310000 	   -1.9098870000 	    2.3953410000
H   	    1.5356890000 	   -0.3689110000 	    1.7698080000
H   	    1.5682120000 	    0.4316850000 	   -1.7999110000
H   	    3.3835060000 	    2.0192500000 	   -2.3421210000
H   	    3.7458180000 	    4.0351410000 	   -0.9342900000
H   	    2.2775980000 	    4.4362550000 	    1.0301670000
H   	    0.4687200000 	    2.8348350000 	    1.5808220000
