22
tauto -462.40420082
C   	   -2.7737060000 	    0.6099420000 	    0.1100030000
C   	   -1.7446470000 	   -0.5107420000 	    0.0261510000
C   	   -0.2869490000 	   -0.2428600000 	   -0.0289140000
C   	    0.5586020000 	   -1.5039750000 	   -0.0035920000
C   	    2.0265610000 	   -1.2654170000 	   -0.3456160000
C   	    2.5600120000 	   -0.0584280000 	    0.4185740000
C   	    1.7907340000 	    1.1898990000 	    0.0003080000
C   	    0.3020650000 	    0.9764110000 	   -0.0589500000
O   	   -0.3119700000 	    2.1812350000 	   -0.1525360000
O   	   -2.1484110000 	   -1.6624650000 	    0.0335340000
H   	   -2.8395200000 	    1.1637890000 	   -0.8374170000
H   	   -2.5598740000 	    1.3090150000 	    0.9271220000
H   	   -3.7487590000 	    0.1527560000 	    0.2864250000
H   	    0.1149550000 	   -2.2268410000 	   -0.6954070000
H   	    0.4767010000 	   -1.9681830000 	    0.9892070000
H   	    2.1330510000 	   -1.0839840000 	   -1.4243330000
H   	    2.6106980000 	   -2.1634990000 	   -0.1151790000
H   	    3.6308980000 	    0.0884850000 	    0.2396910000
H   	    2.4337880000 	   -0.2254130000 	    1.4965680000
H   	    2.1173260000 	    1.5313690000 	   -0.9919330000
H   	    1.9742980000 	    2.0276850000 	    0.6832220000
H   	   -1.2565550000 	    2.0756710000 	   -0.3137340000
