20
tauto -552.445660064
C   	    3.0395970000 	    0.5681870000 	    1.0107810000
C   	    2.8179930000 	   -0.1142610000 	   -0.3245210000
O   	    1.4709670000 	    0.1025450000 	   -0.7907700000
C   	    0.5326890000 	   -0.6825570000 	   -0.2724430000
C   	   -0.8425220000 	   -0.2771270000 	   -0.7666190000
N   	   -1.8509500000 	   -1.2285860000 	   -0.3469130000
C   	   -2.6819600000 	   -0.5968140000 	    0.5529820000
C   	   -2.4740850000 	    0.7326030000 	    0.6691850000
C   	   -1.3054710000 	    1.0751690000 	   -0.1330570000
O   	   -0.7622920000 	    2.1392200000 	   -0.3244210000
O   	    0.7275770000 	   -1.6066780000 	    0.4857500000
H   	    4.0893630000 	    0.4732900000 	    1.3073030000
H   	    2.4202510000 	    0.1066810000 	    1.7848930000
H   	    2.7895490000 	    1.6307990000 	    0.9415460000
H   	    2.9993380000 	   -1.1904640000 	   -0.2618230000
H   	    3.4448370000 	    0.3165590000 	   -1.1077920000
H   	   -0.8112050000 	   -0.1513590000 	   -1.8539460000
H   	   -1.5017190000 	   -2.1421230000 	   -0.0823460000
H   	   -3.4334130000 	   -1.1914760000 	    1.0629810000
H   	   -3.0478100000 	    1.4363100000 	    1.2552610000
