21
tauto -611.389660106
C   	    2.2131600000 	   -1.3603990000 	    1.2333390000
C   	    2.4561630000 	   -0.3507950000 	    0.1410660000
C   	    1.2785400000 	   -0.0297170000 	   -0.7811350000
O   	    0.3445870000 	   -1.1111190000 	   -0.8483680000
C   	   -0.8653410000 	   -0.6633610000 	   -0.4148430000
C   	   -2.0089980000 	   -1.4505750000 	   -0.3370610000
C   	   -3.1632260000 	   -0.8312580000 	    0.1273380000
C   	   -3.1870530000 	    0.5214470000 	    0.5031070000
C   	   -2.0350580000 	    1.2879660000 	    0.4179020000
C   	   -0.8720860000 	    0.6761170000 	   -0.0465540000
C   	    0.4869690000 	    1.1928920000 	   -0.2499190000
O   	    0.9398350000 	    2.2938700000 	   -0.0536820000
O   	    3.5007750000 	    0.2314910000 	   -0.0234100000
H   	    1.3171590000 	   -1.0980590000 	    1.8082660000
H   	    3.0833550000 	   -1.3933650000 	    1.8905230000
H   	    2.0351850000 	   -2.3478990000 	    0.7957040000
H   	    1.6654200000 	    0.1818800000 	   -1.7821080000
H   	   -1.9907530000 	   -2.4955240000 	   -0.6289160000
H   	   -4.0777550000 	   -1.4144990000 	    0.2007290000
H   	   -4.1127720000 	    0.9622490000 	    0.8605420000
H   	   -2.0198250000 	    2.3373850000 	    0.6995010000
