17
tauto -513.142247399
C   	    3.2461240000 	    0.4599460000 	   -0.0000190000
O   	    1.8300370000 	    0.6249700000 	   -0.0005050000
C   	    1.1308930000 	   -0.5175700000 	   -0.0000140000
C   	   -0.3151850000 	   -0.2931970000 	   -0.0004480000
C   	   -1.2018370000 	   -1.3355880000 	   -0.0003130000
N   	   -2.4864100000 	   -0.9449630000 	    0.0003530000
C   	   -2.5748040000 	    0.5028880000 	    0.0000850000
C   	   -1.0919620000 	    0.9490970000 	    0.0000180000
O   	   -0.7468090000 	    2.1099580000 	    0.0003080000
O   	    1.6448020000 	   -1.6199900000 	    0.0006300000
H   	    3.6587290000 	    1.4689670000 	   -0.0014390000
H   	    3.5706520000 	   -0.0891170000 	   -0.8879860000
H   	    3.5703400000 	   -0.0864230000 	    0.8897310000
H   	   -0.9389990000 	   -2.3885280000 	   -0.0006710000
H   	   -3.2727690000 	   -1.5712690000 	   -0.0013730000
H   	   -3.0833930000 	    0.8842640000 	    0.8915290000
H   	   -3.0832960000 	    0.8838890000 	   -0.8915820000
