23
tauto -500.503644866
O   	    0.5840170000 	    2.4201100000 	    0.1809490000
C   	    0.7974060000 	    1.0999710000 	   -0.0070670000
C   	    2.2311360000 	    0.6354220000 	    0.0704840000
C   	    2.4156580000 	   -0.8451460000 	   -0.2842670000
C   	    1.2841780000 	   -1.7057480000 	    0.2851850000
C   	   -0.0395760000 	   -1.2494520000 	   -0.3148830000
C   	   -1.3259280000 	   -1.8068650000 	    0.3233730000
C   	   -2.4061550000 	   -0.7845650000 	   -0.0529040000
C   	   -0.2248610000 	    0.2468430000 	   -0.1822500000
C   	   -1.6683030000 	    0.5591400000 	   -0.0994220000
O   	   -2.1983130000 	    1.6492980000 	   -0.0578950000
H   	    1.4326270000 	    2.8599750000 	    0.3205360000
H   	    2.5815270000 	    0.8243570000 	    1.0967710000
H   	    2.8495080000 	    1.2631030000 	   -0.5870790000
H   	    3.3910630000 	   -1.1860240000 	    0.0799760000
H   	    2.4293310000 	   -0.9558070000 	   -1.3762460000
H   	    1.2460280000 	   -1.5936540000 	    1.3783110000
H   	    1.4675810000 	   -2.7659040000 	    0.0730410000
H   	   -0.0450460000 	   -1.5234600000 	   -1.3834630000
H   	   -1.2035860000 	   -1.8324070000 	    1.4144510000
H   	   -1.5543920000 	   -2.8244870000 	   -0.0095830000
H   	   -3.2538730000 	   -0.7353200000 	    0.6354700000
H   	   -2.8077160000 	   -0.9832430000 	   -1.0561150000
