22
tauto -591.53246026
C   	    2.4232990000 	   -0.1698770000 	    1.5989310000
C   	    2.5643070000 	   -0.3015880000 	    0.1040470000
C   	    1.2683370000 	   -0.2220540000 	   -0.7121040000
N   	    0.3546370000 	   -1.3163290000 	   -0.3980170000
C   	   -0.9258870000 	   -0.8076950000 	   -0.1999730000
C   	   -2.1173860000 	   -1.5162060000 	   -0.0308250000
C   	   -3.2731140000 	   -0.7848030000 	    0.2100160000
C   	   -3.2684730000 	    0.6164970000 	    0.2917320000
C   	   -2.0827190000 	    1.3125610000 	    0.1169690000
C   	   -0.9207310000 	    0.5883490000 	   -0.1396170000
C   	    0.4504530000 	    1.0495800000 	   -0.3902570000
O   	    0.9056290000 	    2.1711780000 	   -0.3446610000
O   	    3.6252510000 	   -0.4551270000 	   -0.4555470000
H   	    1.5775770000 	   -0.7615050000 	    1.9632510000
H   	    2.2286880000 	    0.8824360000 	    1.8384900000
H   	    3.3482990000 	   -0.4820120000 	    2.0863770000
H   	    1.5485460000 	   -0.2024950000 	   -1.7728960000
H   	    0.4467100000 	   -2.1649340000 	   -0.9379560000
H   	   -2.1400110000 	   -2.6016040000 	   -0.0793520000
H   	   -4.2117420000 	   -1.3173120000 	    0.3438680000
H   	   -4.1953470000 	    1.1471130000 	    0.4876750000
H   	   -2.0407370000 	    2.3976160000 	    0.1648140000
