30
tauto -953.483147376
O   	   -5.2969940000 	   -1.3110790000 	   -0.1578850000
C   	   -4.1114560000 	   -0.6677150000 	   -0.0682570000
C   	   -3.9794650000 	    0.6652520000 	   -0.4943780000
C   	   -2.7494280000 	    1.3077610000 	   -0.3915050000
O   	   -2.5508820000 	    2.5819410000 	   -0.7741090000
C   	   -1.6616560000 	    0.5992890000 	    0.1341940000
C   	   -0.2777060000 	    0.9616490000 	    0.3871870000
C   	    0.3550740000 	   -0.3578810000 	    0.9058220000
C   	    1.3602900000 	   -0.9234980000 	   -0.1139790000
C   	    2.7638450000 	   -0.4176330000 	   -0.0878820000
C   	    3.1475610000 	    0.7218670000 	    0.6237070000
C   	    4.4770930000 	    1.1315840000 	    0.6081900000
C   	    5.4244210000 	    0.4043160000 	   -0.1054820000
C   	    5.0438250000 	   -0.7302520000 	   -0.8206970000
C   	    3.7172540000 	   -1.1359160000 	   -0.8163380000
O   	    0.9919410000 	   -1.7728330000 	   -0.8942560000
O   	   -0.7175840000 	   -1.2796620000 	    1.0560140000
O   	    0.3174570000 	    2.0083130000 	    0.2526190000
C   	   -1.8382910000 	   -0.7260210000 	    0.5440470000
C   	   -3.0462830000 	   -1.3933300000 	    0.4643790000
H   	   -5.9573490000 	   -0.7220390000 	   -0.5446790000
H   	   -4.8398770000 	    1.1907780000 	   -0.9061510000
H   	   -3.3765430000 	    2.9445850000 	   -1.1213790000
H   	    0.8252930000 	   -0.2066540000 	    1.8821000000
H   	    2.4068890000 	    1.3211150000 	    1.1451930000
H   	    4.7712780000 	    2.0254220000 	    1.1515020000
H   	    6.4633410000 	    0.7248860000 	   -0.1097880000
H   	    5.7831150000 	   -1.2952330000 	   -1.3821910000
H   	    3.3927930000 	   -2.0122280000 	   -1.3700640000
H   	   -3.1709010000 	   -2.4209010000 	    0.7823570000
