40
tauto -998.172252489
O   	   -1.4245360000 	   -3.0274090000 	   -1.5787820000
C   	   -0.8140280000 	   -2.0855220000 	   -1.1690570000
C   	   -1.2562870000 	   -0.6285970000 	   -1.0349800000
C   	   -2.4744590000 	   -0.5394980000 	   -0.1292430000
C   	   -3.7365390000 	   -0.3066090000 	   -0.6704010000
C   	   -4.8594030000 	   -0.2577410000 	    0.1515110000
C   	   -4.7280290000 	   -0.4424310000 	    1.5234570000
C   	   -3.4690080000 	   -0.6788760000 	    2.0706640000
C   	   -2.3490800000 	   -0.7288980000 	    1.2487910000
O   	    0.4689030000 	   -2.1916010000 	   -0.6986960000
C   	    0.9276930000 	   -0.9210170000 	   -0.3514430000
C   	    2.3119930000 	   -0.9098570000 	    0.1498940000
C   	    2.7372970000 	    0.0526330000 	    1.0718500000
C   	    4.0456070000 	    0.0427290000 	    1.5381140000
C   	    4.9403750000 	   -0.9290560000 	    1.0962870000
C   	    4.5183910000 	   -1.8974070000 	    0.1905150000
C   	    3.2097000000 	   -1.8927870000 	   -0.2781190000
C   	    0.0092250000 	    0.0387090000 	   -0.5459470000
C   	    0.1852840000 	    1.5061530000 	   -0.4670390000
C   	    1.3011960000 	    2.1097680000 	   -1.0614800000
C   	    1.4693900000 	    3.4881390000 	   -1.0237160000
C   	    0.5179670000 	    4.2922980000 	   -0.4014090000
C   	   -0.6010050000 	    3.7058250000 	    0.1803260000
C   	   -0.7689690000 	    2.3246260000 	    0.1479380000
H   	   -1.5321010000 	   -0.2679390000 	   -2.0339320000
H   	   -3.8433420000 	   -0.1645470000 	   -1.7435700000
H   	   -5.8381990000 	   -0.0747540000 	   -0.2841520000
H   	   -5.6035850000 	   -0.4035390000 	    2.1662810000
H   	   -3.3582160000 	   -0.8269210000 	    3.1417350000
H   	   -1.3655700000 	   -0.9072050000 	    1.6801830000
H   	    2.0377840000 	    0.8037800000 	    1.4275290000
H   	    4.3654590000 	    0.7924830000 	    2.2568600000
H   	    5.9628630000 	   -0.9356860000 	    1.4651420000
H   	    5.2098400000 	   -2.6630510000 	   -0.1511920000
H   	    2.8733300000 	   -2.6542190000 	   -0.9754080000
H   	    2.0391060000 	    1.4863420000 	   -1.5604410000
H   	    2.3426600000 	    3.9364100000 	   -1.4907360000
H   	    0.6469180000 	    5.3712780000 	   -0.3745900000
H   	   -1.3508200000 	    4.3251760000 	    0.6660610000
H   	   -1.6449220000 	    1.8789730000 	    0.6109490000
