15
tauto -549.004642231
C   	   -3.1802410000 	    0.2774890000 	   -0.1254210000
O   	   -1.8803480000 	    0.3934020000 	    0.4684560000
C   	   -0.9833290000 	   -0.4888740000 	    0.0367420000
C   	    0.3724960000 	   -0.2209580000 	    0.6690720000
C   	    1.3734770000 	   -1.2990690000 	    0.4405890000
N   	    2.4346830000 	   -0.9013320000 	   -0.1416150000
O   	    2.3130140000 	    0.4754730000 	   -0.4123220000
C   	    1.0986400000 	    0.9483390000 	    0.0033720000
O   	    0.7473270000 	    2.0772050000 	   -0.1562740000
O   	   -1.1977030000 	   -1.3766240000 	   -0.7501210000
H   	   -3.7782090000 	    1.0671360000 	    0.3273630000
H   	   -3.6071750000 	   -0.7052360000 	    0.0875150000
H   	   -3.1119680000 	    0.4158270000 	   -1.2066210000
H   	    0.2336610000 	    0.0186770000 	    1.7295160000
H   	    1.2763290000 	   -2.3442880000 	    0.7094900000
