18
tauto -493.260679383
C   	    2.5960390000 	    1.0853520000 	   -0.0105990000
C   	    1.8298800000 	   -0.2006780000 	    0.1449570000
C   	    0.5342890000 	   -0.3033870000 	   -0.6696480000
C   	   -0.2145290000 	   -1.5871580000 	   -0.5007630000
N   	   -1.4219760000 	   -1.4212830000 	   -0.1112980000
N   	   -1.6335380000 	   -0.0596490000 	    0.0376210000
C   	   -2.9009890000 	    0.4268600000 	    0.5223250000
C   	   -0.5352000000 	    0.7073460000 	   -0.2330380000
O   	   -0.4509900000 	    1.9170380000 	   -0.1433330000
O   	    2.1858830000 	   -1.1170250000 	    0.8491540000
H   	    3.0240230000 	    1.1346410000 	   -1.0194210000
H   	    3.4005370000 	    1.1249270000 	    0.7254710000
H   	    1.9180230000 	    1.9388400000 	    0.0961210000
H   	    0.7715810000 	   -0.0994180000 	   -1.7233520000
H   	    0.1809850000 	   -2.5828700000 	   -0.6596400000
H   	   -3.1171120000 	    0.0105310000 	    1.5103930000
H   	   -3.7040930000 	    0.1562290000 	   -0.1688480000
H   	   -2.8214280000 	    1.5135260000 	    0.5890350000
