17
tauto -513.109939328
C   	   -2.5981570000 	   -0.5635330000 	    0.2503530000
C   	   -1.1823220000 	   -0.9015160000 	   -0.1286810000
C   	   -0.0941400000 	   -0.0442410000 	    0.5426420000
C   	    1.3159110000 	   -0.3965060000 	    0.1901270000
C   	    1.9672610000 	   -1.7189380000 	    0.3999690000
N   	    1.9572930000 	    0.5823530000 	   -0.3251030000
O   	    1.0964230000 	    1.7036960000 	   -0.4103080000
C   	   -0.1353330000 	    1.4053760000 	    0.0746210000
O   	   -1.0423830000 	    2.1888660000 	    0.0911080000
O   	   -0.8824660000 	   -1.7815610000 	   -0.9006960000
H   	   -2.7712390000 	    0.5111560000 	    0.1303730000
H   	   -2.7614620000 	   -0.8018270000 	    1.3083500000
H   	   -3.2890320000 	   -1.1418250000 	   -0.3647000000
H   	   -0.2636550000 	   -0.0584670000 	    1.6279380000
H   	    1.9239560000 	   -2.0052000000 	    1.4566540000
H   	    3.0113750000 	   -1.6733210000 	    0.0833400000
H   	    1.4370960000 	   -2.4788530000 	   -0.1812460000
