17
tauto -547.189126986
N   	    2.4655550000 	    2.2296330000 	   -0.7585730000
C   	    1.8942240000 	    1.4091160000 	   -0.1788040000
C   	    1.1408790000 	    0.3947110000 	    0.5575750000
C   	   -0.3499920000 	    0.4129490000 	    0.3054540000
C   	   -1.2996300000 	    1.4076800000 	    0.3990850000
C   	   -2.6205810000 	    1.0531620000 	    0.1039610000
N   	   -2.9995760000 	   -0.1712130000 	   -0.2558790000
C   	   -2.0743980000 	   -1.1303410000 	   -0.3520280000
C   	   -0.7416810000 	   -0.8684920000 	   -0.0809840000
N   	    0.3726660000 	   -1.7120490000 	   -0.1298740000
C   	    1.5478900000 	   -1.0551400000 	    0.1620000000
O   	    2.6604260000 	   -1.5136050000 	    0.1426120000
H   	    1.3638680000 	    0.5085130000 	    1.6265660000
H   	   -1.0426730000 	    2.4253110000 	    0.6788990000
H   	   -3.4099680000 	    1.7993560000 	    0.1609940000
H   	   -2.4161550000 	   -2.1185930000 	   -0.6545850000
H   	    0.3707470000 	   -2.6722160000 	   -0.4400400000
