20
tauto -461.183886102
O   	    1.6974430000 	    1.9081690000 	    0.1498330000
C   	    1.2702550000 	    0.6519420000 	   -0.0496400000
C   	    2.2100160000 	   -0.5381020000 	   -0.0572080000
C   	    1.2478170000 	   -1.7291830000 	    0.1633230000
C   	   -0.0958700000 	   -1.2330140000 	   -0.4035640000
C   	   -1.4211710000 	   -1.5560930000 	    0.3105400000
C   	   -2.3008480000 	   -0.3246270000 	    0.0126710000
C   	    0.0031720000 	    0.2636320000 	   -0.2538850000
C   	   -1.3267030000 	    0.8635550000 	   -0.0747920000
O   	   -1.6277520000 	    2.0338080000 	    0.0262310000
H   	    2.6369600000 	    1.8941830000 	    0.3723800000
H   	    2.9820390000 	   -0.4593110000 	    0.7198670000
H   	    2.7292760000 	   -0.6058390000 	   -1.0238470000
H   	    1.1414290000 	   -1.9086070000 	    1.2403070000
H   	    1.6104800000 	   -2.6533500000 	   -0.2966630000
H   	   -0.1826540000 	   -1.5123840000 	   -1.4660640000
H   	   -1.2419230000 	   -1.6284780000 	    1.3912990000
H   	   -1.8785420000 	   -2.4955680000 	   -0.0158840000
H   	   -3.0834480000 	   -0.1308850000 	    0.7512340000
H   	   -2.7911540000 	   -0.4242370000 	   -0.9658110000
