20
tauto -498.312904386
C   	   -3.2729960000 	   -0.8647050000 	   -0.3349300000
C   	   -1.9327280000 	   -0.4425870000 	    0.2203520000
C   	   -1.1054710000 	    0.4545690000 	   -0.6902340000
C   	   -0.0001010000 	    1.2322800000 	   -0.0009730000
C   	    1.1057840000 	    0.4559540000 	    0.6890510000
C   	    1.9328110000 	   -0.4431850000 	   -0.2197760000
C   	    3.2737050000 	   -0.8630560000 	    0.3357090000
O   	    1.5514290000 	   -0.8110800000 	   -1.3117190000
O   	   -0.0005930000 	    2.4433730000 	   -0.0013530000
O   	   -1.5519920000 	   -0.8071660000 	    1.3136360000
H   	   -3.9441750000 	    0.0016990000 	   -0.3662640000
H   	   -3.7087130000 	   -1.6364860000 	    0.3017970000
H   	   -3.1701820000 	   -1.2333630000 	   -1.3613550000
H   	   -1.7550930000 	    1.1678850000 	   -1.2072930000
H   	   -0.6389080000 	   -0.1939960000 	   -1.4447670000
H   	    0.6393810000 	   -0.1909650000 	    1.4451190000
H   	    1.7554900000 	    1.1703410000 	    1.2045150000
H   	    3.9439330000 	    0.0041040000 	    0.3661360000
H   	    3.7101650000 	   -1.6351370000 	   -0.3001420000
H   	    3.1713240000 	   -1.2307290000 	    1.3625460000
