20
tauto -498.312799216
C   	   -2.8883750000 	   -0.5984580000 	   -0.9417790000
C   	   -2.2767630000 	    0.4637770000 	   -0.0613440000
C   	   -1.4374310000 	   -0.0445940000 	    1.1123430000
C   	   -0.0826980000 	   -0.4845630000 	    0.5810090000
C   	    0.9422310000 	    0.5153940000 	    0.4309080000
C   	    2.1628490000 	    0.1832600000 	   -0.0881660000
C   	    3.2735780000 	    1.1614860000 	   -0.2931700000
O   	    2.4726230000 	   -1.0473420000 	   -0.4596510000
O   	    0.0783470000 	   -1.6710670000 	    0.2497710000
O   	   -2.4093710000 	    1.6498670000 	   -0.2622270000
H   	   -3.7263850000 	   -1.0670480000 	   -0.4114590000
H   	   -2.1587320000 	   -1.3879470000 	   -1.1513370000
H   	   -3.2555170000 	   -0.1509030000 	   -1.8669330000
H   	   -1.9136050000 	   -0.9144900000 	    1.5744550000
H   	   -1.3321770000 	    0.7686600000 	    1.8341840000
H   	    0.7362870000 	    1.5424410000 	    0.7082440000
H   	    3.5454700000 	    1.1880920000 	   -1.3532940000
H   	    4.1575990000 	    0.8341980000 	    0.2633820000
H   	    2.9891870000 	    2.1636750000 	    0.0325740000
H   	    1.6647360000 	   -1.6061580000 	   -0.2917760000
