34
tauto -881.689080459
O   	   -1.8217130000 	    2.1089370000 	   -0.2709430000
C   	   -1.8591840000 	    0.8688700000 	    0.1916830000
C   	   -3.1028930000 	    0.1380800000 	   -0.1442210000
C   	   -3.9464370000 	    0.6411860000 	   -1.1391140000
C   	   -5.1128700000 	   -0.0347320000 	   -1.4760590000
C   	   -5.4517480000 	   -1.2140460000 	   -0.8192380000
C   	   -4.6208980000 	   -1.7153730000 	    0.1794370000
C   	   -3.4534250000 	   -1.0433590000 	    0.5163080000
C   	   -0.8194500000 	    0.3320660000 	    0.9058360000
C   	    0.3530790000 	    1.1140500000 	    1.1891040000
C   	    1.4577170000 	    0.4492790000 	    1.9989210000
C   	    2.0500860000 	   -0.7399710000 	    1.2481910000
C   	    3.0632110000 	   -0.4848380000 	    0.1792040000
C   	    3.3699500000 	    0.8026880000 	   -0.2703510000
C   	    4.3167140000 	    0.9782490000 	   -1.2748390000
C   	    4.9629880000 	   -0.1240740000 	   -1.8256390000
C   	    4.6574560000 	   -1.4099290000 	   -1.3816230000
C   	    3.7071830000 	   -1.5891250000 	   -0.3869340000
O   	    1.6821360000 	   -1.8675500000 	    1.5167700000
O   	    0.5032300000 	    2.2846720000 	    0.7995950000
H   	   -0.9393690000 	    2.4875980000 	   -0.0006050000
H   	   -3.6768610000 	    1.5629460000 	   -1.6446040000
H   	   -5.7600870000 	    0.3615990000 	   -2.2538810000
H   	   -6.3657360000 	   -1.7405570000 	   -1.0818110000
H   	   -4.8853910000 	   -2.6307690000 	    0.7017250000
H   	   -2.8237970000 	   -1.4339500000 	    1.3103480000
H   	   -0.8476330000 	   -0.6979560000 	    1.2389870000
H   	    1.0326300000 	    0.0495660000 	    2.9241140000
H   	    2.2122810000 	    1.2027300000 	    2.2352760000
H   	    2.8565680000 	    1.6691900000 	    0.1394740000
H   	    4.5482240000 	    1.9794150000 	   -1.6282290000
H   	    5.7065750000 	    0.0177130000 	   -2.6060480000
H   	    5.1599600000 	   -2.2704610000 	   -1.8152750000
H   	    3.4445300000 	   -2.5796770000 	   -0.0268430000
