22
tauto -628.64783785
C   	    3.6634370000 	   -1.3623390000 	    0.3485700000
O   	    2.9259620000 	   -0.4673720000 	   -0.4864700000
C   	    1.9229730000 	    0.1743540000 	    0.1280480000
C   	    1.2184200000 	    1.1227870000 	   -0.8151860000
C   	   -0.1433710000 	    1.5107710000 	   -0.2708990000
C   	   -1.1704010000 	    0.4168580000 	   -0.1540080000
N   	   -0.8273850000 	   -0.7864490000 	   -0.6225790000
C   	   -1.7318070000 	   -1.7592590000 	   -0.5334330000
C   	   -2.9977740000 	   -1.5800580000 	    0.0190510000
C   	   -3.3419280000 	   -0.3225320000 	    0.5016710000
C   	   -2.4092840000 	    0.7024460000 	    0.4122110000
O   	   -0.4123920000 	    2.6514480000 	    0.0365350000
O   	    1.6476620000 	    0.0336950000 	    1.2955640000
H   	    3.0055860000 	   -2.1390880000 	    0.7461040000
H   	    4.1190040000 	   -0.8220880000 	    1.1823140000
H   	    4.4303770000 	   -1.7981620000 	   -0.2917710000
H   	    1.1258690000 	    0.6477660000 	   -1.7953790000
H   	    1.8135090000 	    2.0354720000 	   -0.9156980000
H   	   -1.4312080000 	   -2.7304450000 	   -0.9225650000
H   	   -3.6943080000 	   -2.4119050000 	    0.0666760000
H   	   -4.3200600000 	   -0.1452610000 	    0.9408440000
H   	   -2.6085260000 	    1.7085200000 	    0.7663460000
