19
tauto -460.231532192
C   	   -3.3198060000 	    0.6030150000 	    0.3529910000
C   	   -2.6011750000 	   -0.4566370000 	   -0.4595060000
O   	   -1.3729230000 	   -0.8606890000 	    0.1776170000
C   	   -0.3163080000 	   -0.0624590000 	   -0.0158440000
C   	    0.8922550000 	   -0.5859370000 	    0.7355730000
C   	    2.2098670000 	   -0.1879100000 	    0.0723060000
C   	    2.6268810000 	    1.2563060000 	    0.1853970000
O   	    2.8726680000 	   -1.0217900000 	   -0.5022910000
O   	   -0.3393650000 	    0.9434880000 	   -0.6880400000
H   	   -4.2848680000 	    0.8341540000 	   -0.1096520000
H   	   -2.7285350000 	    1.5218420000 	    0.3918920000
H   	   -3.5022920000 	    0.2504360000 	    1.3727820000
H   	   -2.3727410000 	   -0.0982870000 	   -1.4664080000
H   	   -3.1835920000 	   -1.3781410000 	   -0.5257050000
H   	    0.8401480000 	   -1.6742820000 	    0.8007960000
H   	    0.8410710000 	   -0.1748620000 	    1.7524300000
H   	    2.7357910000 	    1.5348910000 	    1.2404910000
H   	    1.8469430000 	    1.8912680000 	   -0.2464010000
H   	    3.5747540000 	    1.4066350000 	   -0.3340150000
