20
tauto -627.348248558
O   	   -2.4309780000 	   -0.6740400000 	    1.3467290000
N   	   -2.5453910000 	   -0.2974100000 	    0.1934390000
C   	   -1.3059880000 	   -0.2636170000 	   -0.6416930000
C   	   -0.3692830000 	   -1.4541960000 	   -0.4168450000
C   	    0.9896700000 	   -0.8207220000 	   -0.2046100000
C   	    0.9052150000 	    0.5627970000 	   -0.0879610000
C   	    2.0231830000 	    1.3582050000 	    0.1531010000
C   	    3.2558200000 	    0.7321090000 	    0.2649080000
C   	    3.3513690000 	   -0.6593600000 	    0.1390480000
C   	    2.2270450000 	   -1.4461800000 	   -0.0947140000
C   	   -0.4931770000 	    1.0033470000 	   -0.2478220000
O   	   -0.9604820000 	    2.1063980000 	   -0.1218740000
O   	   -3.5692900000 	    0.0956700000 	   -0.3269280000
H   	   -1.6505780000 	   -0.1585790000 	   -1.6715250000
H   	   -0.3780620000 	   -2.1472290000 	   -1.2633720000
H   	   -0.6802190000 	   -2.0029100000 	    0.4776370000
H   	    1.9136220000 	    2.4353980000 	    0.2451890000
H   	    4.1521610000 	    1.3175760000 	    0.4490770000
H   	    4.3247220000 	   -1.1350460000 	    0.2291480000
H   	    2.3189710000 	   -2.5258680000 	   -0.1841160000
