20
tauto -498.311947691
C   	    1.6911560000 	    1.8490940000 	    0.5968010000
C   	    0.4052510000 	    1.3953670000 	   -0.0797690000
C   	   -0.0276060000 	   -0.0278490000 	   -0.0066200000
C   	   -1.4614090000 	   -0.3428860000 	    0.0756520000
C   	   -2.5116230000 	    0.7364150000 	    0.0725540000
O   	   -1.8473480000 	   -1.5207890000 	    0.1694830000
C   	    0.8665190000 	   -1.0847880000 	   -0.0677130000
C   	    2.3524180000 	   -0.9868170000 	   -0.2652980000
O   	    0.4779830000 	   -2.3369450000 	    0.0015070000
O   	   -0.2891700000 	    2.2383380000 	   -0.6210610000
H   	    2.0760050000 	    1.1407910000 	    1.3333580000
H   	    1.4779300000 	    2.8035130000 	    1.0850400000
H   	    2.4658050000 	    2.0407580000 	   -0.1537420000
H   	   -2.5500020000 	    1.2206210000 	   -0.9059600000
H   	   -2.2821570000 	    1.5240120000 	    0.7950020000
H   	   -3.4705420000 	    0.2698200000 	    0.3045110000
H   	    2.8629850000 	   -0.9795650000 	    0.7039540000
H   	    2.6492180000 	   -0.0993510000 	   -0.8234390000
H   	    2.6783130000 	   -1.8793100000 	   -0.8040910000
H   	   -0.5275100000 	   -2.3173380000 	    0.1123010000
