17
tauto -458.983204181
C   	   -2.3443440000 	    0.8888180000 	    0.0060930000
C   	   -1.4894290000 	   -0.3594890000 	   -0.0008820000
C   	    0.0052190000 	   -0.2830450000 	   -0.0001070000
C   	    0.6916030000 	   -1.5910970000 	    0.0007020000
O   	    1.8989090000 	   -1.7629690000 	    0.0060070000
C   	    0.7413250000 	    0.8648400000 	   -0.0014330000
C   	    2.2425160000 	    0.9166770000 	   -0.0032700000
O   	    0.1195100000 	    2.0572650000 	   -0.0008190000
O   	   -2.0292030000 	   -1.4534600000 	   -0.0070180000
H   	   -2.1352810000 	    1.5045950000 	    0.8856660000
H   	   -3.3891280000 	    0.5730820000 	    0.0081850000
H   	   -2.1408210000 	    1.5100860000 	   -0.8709190000
H   	    0.0004610000 	   -2.4494740000 	   -0.0033470000
H   	    2.6490490000 	    0.4129510000 	    0.8763810000
H   	    2.5944190000 	    1.9551750000 	   -0.0211760000
H   	    2.6483960000 	    0.3821950000 	   -0.8645170000
H   	    0.7778360000 	    2.7644780000 	   -0.0022570000
