32
tauto -618.426745358
C   	   -2.5468300000 	   -1.4497650000 	    0.4383380000
C   	   -1.2508750000 	   -0.6475860000 	    0.5849810000
C   	   -0.9932440000 	   -0.4519070000 	    2.0824300000
C   	   -0.0353970000 	   -1.2558450000 	   -0.1816370000
C   	   -0.5108590000 	   -1.1939920000 	   -1.6535070000
C   	   -1.2765330000 	    0.1577670000 	   -1.7001870000
C   	    0.9911690000 	   -0.1535810000 	   -0.0253110000
C   	    2.3408710000 	   -0.1561990000 	    0.0791650000
C   	    3.2145200000 	   -1.3687060000 	    0.0985020000
O   	    3.0332230000 	    0.9837030000 	    0.1854470000
C   	   -1.2316070000 	    0.6844530000 	   -0.2329510000
C   	   -2.2290190000 	    1.7733920000 	    0.0965440000
C   	    0.2282550000 	    1.0890640000 	   -0.0553800000
O   	    0.6752700000 	    2.2345950000 	    0.0171070000
H   	   -2.4300080000 	   -2.4372060000 	    0.9015060000
H   	   -2.8561610000 	   -1.6048640000 	   -0.5983460000
H   	   -3.3695200000 	   -0.9420610000 	    0.9555770000
H   	   -0.8893880000 	   -1.4247150000 	    2.5779790000
H   	   -1.8360060000 	    0.0673890000 	    2.5535410000
H   	   -0.0858630000 	    0.1233850000 	    2.2889680000
H   	    0.2770250000 	   -2.2486090000 	    0.1588590000
H   	   -1.1645820000 	   -2.0362720000 	   -1.9031170000
H   	    0.3359250000 	   -1.2196510000 	   -2.3453990000
H   	   -2.3186360000 	    0.0270210000 	   -2.0114670000
H   	   -0.8268390000 	    0.8780150000 	   -2.3920490000
H   	    2.6319490000 	   -2.2873060000 	    0.0060270000
H   	    3.7863280000 	   -1.3957060000 	    1.0319840000
H   	    3.9352280000 	   -1.3152950000 	   -0.7240260000
H   	    2.3825760000 	    1.7275210000 	    0.1547190000
H   	   -3.2554580000 	    1.4415600000 	   -0.0970860000
H   	   -2.0330970000 	    2.6628620000 	   -0.5110550000
H   	   -2.1541310000 	    2.0749680000 	    1.1470310000
