19
tauto -514.269891022
O   	    1.6941550000 	    1.0035940000 	   -0.9747300000
N   	    1.5788780000 	    0.0790750000 	   -0.1893480000
C   	    0.4496390000 	    0.1694720000 	    0.8125800000
C   	   -0.1266980000 	   -1.2150320000 	    1.0977260000
C   	   -0.8695450000 	   -1.7713050000 	   -0.1204690000
C   	   -1.9694130000 	   -0.8157570000 	   -0.5909270000
C   	   -1.4140380000 	    0.5848900000 	   -0.9072940000
C   	   -0.6289130000 	    1.1174550000 	    0.2699900000
O   	   -0.8693670000 	    2.1553060000 	    0.8389520000
O   	    2.3180880000 	   -0.8831760000 	   -0.1261510000
H   	    0.9042500000 	    0.6269990000 	    1.6958010000
H   	   -0.8201120000 	   -1.1082150000 	    1.9419230000
H   	    0.6795070000 	   -1.8814380000 	    1.4151990000
H   	   -1.3005140000 	   -2.7463130000 	    0.1308030000
H   	   -0.1516810000 	   -1.9481100000 	   -0.9330890000
H   	   -2.7361670000 	   -0.7308120000 	    0.1909780000
H   	   -2.4685720000 	   -1.2172300000 	   -1.4791650000
H   	   -2.2082780000 	    1.2987550000 	   -1.1395770000
H   	   -0.7397910000 	    0.5287190000 	   -1.7716420000
