27
tauto -739.421255366
C   	   -2.4554170000 	    0.6321920000 	    1.3654750000
N   	   -2.4104850000 	   -0.2886160000 	    0.2503290000
C   	   -3.6894120000 	   -0.7836900000 	   -0.2156720000
C   	   -1.2882500000 	   -0.6011960000 	   -0.4560250000
C   	   -0.0032620000 	    0.0766960000 	   -0.0653540000
N   	    0.0550850000 	    1.5003440000 	   -0.0781940000
O   	    0.9858400000 	    2.0679670000 	    0.4941140000
O   	   -0.8628990000 	    2.1014230000 	   -0.6281050000
C   	    1.1179810000 	   -0.6874000000 	    0.1467190000
N   	    2.4088960000 	   -0.3642190000 	   -0.0810260000
C   	    2.8024620000 	    0.6628110000 	   -1.0276130000
C   	    3.4749690000 	   -0.8748350000 	    0.7689040000
O   	    0.8911450000 	   -1.9343790000 	    0.6144810000
O   	   -1.2809070000 	   -1.4257640000 	   -1.3615120000
H   	   -2.8000200000 	    1.6264500000 	    1.0560920000
H   	   -1.4693780000 	    0.7267470000 	    1.8252280000
H   	   -3.1418710000 	    0.2372390000 	    2.1229780000
H   	   -4.1891550000 	   -1.3529100000 	    0.5777850000
H   	   -3.5173650000 	   -1.4324940000 	   -1.0735220000
H   	   -4.3390460000 	    0.0510830000 	   -0.5091760000
H   	    2.0174410000 	    0.7877220000 	   -1.7766490000
H   	    3.7160300000 	    0.3272690000 	   -1.5303530000
H   	    2.9788160000 	    1.6238200000 	   -0.5351920000
H   	    4.2044390000 	   -1.4433520000 	    0.1798140000
H   	    3.0602500000 	   -1.5150880000 	    1.5484620000
H   	    3.9921320000 	   -0.0356700000 	    1.2485260000
H   	    1.4933890000 	   -2.5548220000 	    0.1778220000
