17
tauto -384.791370626
C   	   -2.5495860000 	    1.0463960000 	    0.0001060000
C   	   -1.6954980000 	   -0.2041100000 	   -0.0000450000
C   	   -0.2017800000 	   -0.0547950000 	   -0.0000090000
C   	    0.5742290000 	   -1.2167740000 	    0.0000480000
C   	    1.9598210000 	   -1.1350230000 	    0.0000640000
C   	    2.5829820000 	    0.1116670000 	    0.0000070000
C   	    1.8176790000 	    1.2740020000 	   -0.0000550000
C   	    0.4289050000 	    1.1911490000 	   -0.0000490000
O   	   -2.2059450000 	   -1.3072120000 	   -0.0001090000
H   	   -2.3426530000 	    1.6597370000 	   -0.8839290000
H   	   -2.3426240000 	    1.6594610000 	    0.8843320000
H   	   -3.6000440000 	    0.7519810000 	    0.0000710000
H   	    0.0629490000 	   -2.1750660000 	    0.0000660000
H   	    2.5575230000 	   -2.0428380000 	    0.0001170000
H   	    3.6682090000 	    0.1772140000 	    0.0000090000
H   	    2.3026850000 	    2.2465450000 	   -0.0001110000
H   	   -0.1589990000 	    2.1055880000 	   -0.0000800000
