16
tauto -474.958163843
O   	   -1.2024950000 	   -0.4006980000 	    1.3167820000
N   	   -1.4417680000 	   -0.1354360000 	    0.1484310000
C   	   -0.2621850000 	   -0.0298650000 	   -0.7651410000
C   	    0.5239760000 	   -1.3414290000 	   -0.7983950000
C   	    1.5835940000 	   -1.2210440000 	    0.3148140000
C   	    1.9658120000 	    0.2610740000 	    0.3221820000
C   	    0.7224710000 	    0.9985600000 	   -0.1445940000
O   	    0.5011450000 	    2.1779590000 	   -0.0821370000
O   	   -2.5457420000 	    0.0366920000 	   -0.3241380000
H   	   -0.6571970000 	    0.3106600000 	   -1.7214900000
H   	    1.0096770000 	   -1.4109100000 	   -1.7786120000
H   	   -0.1186820000 	   -2.2193250000 	   -0.6888030000
H   	    2.4376300000 	   -1.8783770000 	    0.1318330000
H   	    1.1405680000 	   -1.4971150000 	    1.2749330000
H   	    2.7618740000 	    0.4772880000 	   -0.4035310000
H   	    2.2932260000 	    0.6504280000 	    1.2894100000
