25
tauto -576.699915882
C   	    0.7343620000 	    2.5508760000 	   -0.0001650000
C   	    1.5431600000 	    1.2755770000 	   -0.0000470000
C   	    0.8418930000 	   -0.0039680000 	   -0.0000440000
C   	   -0.6534300000 	   -0.0317990000 	   -0.0000250000
C   	   -1.3692650000 	   -0.0369850000 	   -1.2013140000
C   	   -2.7610980000 	   -0.0476010000 	   -1.2035200000
C   	   -3.4601600000 	   -0.0518660000 	    0.0000500000
C   	   -2.7610390000 	   -0.0472570000 	    1.2035790000
C   	   -1.3692020000 	   -0.0366390000 	    1.2012980000
C   	    1.5778080000 	   -1.1635630000 	    0.0000250000
C   	    0.9981040000 	   -2.5440000000 	    0.0000870000
O   	    2.9010850000 	   -1.1749690000 	    0.0000570000
O   	    2.7825390000 	    1.3492830000 	    0.0000110000
H   	    0.0819310000 	    2.5921660000 	   -0.8789730000
H   	    1.4153050000 	    3.4034200000 	   -0.0000720000
H   	    0.0816120000 	    2.5921980000 	    0.8783990000
H   	   -0.8227660000 	   -0.0360290000 	   -2.1423630000
H   	   -3.3003560000 	   -0.0536010000 	   -2.1475300000
H   	   -4.5472080000 	   -0.0600790000 	    0.0000740000
H   	   -3.3002430000 	   -0.0529850000 	    2.1476210000
H   	   -0.8226620000 	   -0.0354180000 	    2.1423220000
H   	   -0.0919470000 	   -2.5356820000 	   -0.0004370000
H   	    1.3593900000 	   -3.0835630000 	    0.8816160000
H   	    1.3602850000 	   -3.0840180000 	   -0.8807880000
H   	    3.1908730000 	   -0.2175720000 	    0.0000480000
