19
tauto -419.255983276
C   	   -3.7226860000 	   -0.2700070000 	    0.0009560000
C   	   -2.2623920000 	   -0.6657350000 	   -0.0007000000
O   	   -1.4876930000 	    0.5314260000 	   -0.0005300000
C   	   -0.1591460000 	    0.3368430000 	   -0.0003120000
C   	    0.6501130000 	   -0.7778920000 	   -0.0002390000
C   	    1.9662380000 	   -0.2421820000 	    0.0000590000
C   	    3.2589630000 	   -0.9959370000 	    0.0003410000
N   	    1.9625040000 	    1.0800200000 	    0.0002060000
N   	    0.6507340000 	    1.4157730000 	   -0.0000430000
H   	    0.3709310000 	    2.3827230000 	    0.0003070000
H   	   -4.3540460000 	   -1.1639650000 	    0.0009510000
H   	   -3.9603780000 	    0.3239250000 	   -0.8863140000
H   	   -3.9585530000 	    0.3225990000 	    0.8895980000
H   	   -2.0081980000 	   -1.2575210000 	   -0.8905190000
H   	   -2.0066110000 	   -1.2589820000 	    0.8876900000
H   	    0.3554350000 	   -1.8174120000 	   -0.0006360000
H   	    3.3458560000 	   -1.6357200000 	    0.8854020000
H   	    4.0930430000 	   -0.2898140000 	   -0.0010720000
H   	    3.3448540000 	   -1.6383170000 	   -0.8829430000
