28
tauto -690.235162497
C   	   -3.4708690000 	    1.3611510000 	   -0.0745740000
C   	   -3.4522940000 	   -0.1006930000 	   -0.4755420000
O   	   -2.0953080000 	   -0.5510130000 	   -0.6901400000
C   	   -1.3971500000 	   -0.8546190000 	    0.4027480000
C   	    0.0554430000 	   -1.2083440000 	    0.0411600000
C   	    0.7895210000 	   -0.2010720000 	   -0.8376130000
C   	    2.1946500000 	   -0.6798170000 	   -1.2219210000
C   	    3.2107350000 	   -0.5227220000 	   -0.0894100000
C   	    3.2605030000 	    0.9226740000 	    0.4036630000
C   	    1.8867490000 	    1.3795830000 	    0.9078980000
C   	    0.7744470000 	    1.1444310000 	   -0.0911150000
O   	   -0.1320780000 	    1.9317550000 	   -0.2568400000
O   	    0.5517460000 	   -2.2164970000 	    0.4796020000
O   	   -1.8062680000 	   -0.8597240000 	    1.5354270000
H   	   -4.5054490000 	    1.7158690000 	   -0.0193830000
H   	   -2.9237510000 	    1.9658060000 	   -0.8027080000
H   	   -3.0040240000 	    1.4965170000 	    0.9044770000
H   	   -3.9430800000 	   -0.2673210000 	   -1.4364980000
H   	   -3.9134230000 	   -0.7370030000 	    0.2843530000
H   	    0.1557410000 	   -0.0511940000 	   -1.7190410000
H   	    2.5291620000 	   -0.0975410000 	   -2.0904200000
H   	    2.1365730000 	   -1.7267310000 	   -1.5372090000
H   	    4.2000880000 	   -0.8345320000 	   -0.4428780000
H   	    2.9408880000 	   -1.1919520000 	    0.7365920000
H   	    3.5861040000 	    1.5803480000 	   -0.4140840000
H   	    3.9970590000 	    1.0331070000 	    1.2070650000
H   	    1.8678150000 	    2.4364800000 	    1.1883660000
H   	    1.6211550000 	    0.7985370000 	    1.8051980000
