11
tauto -281.458436265
N   	   -2.0225840000 	    0.0223040000 	    0.0719850000
C   	   -0.6584290000 	   -0.0413410000 	   -0.0037140000
N   	   -0.0002580000 	   -1.1517650000 	   -0.0094130000
N   	    1.3871710000 	   -0.8388030000 	   -0.0058710000
C   	    1.5405190000 	    0.4319430000 	   -0.0008510000
C   	    0.2342780000 	    1.1659320000 	    0.0066670000
H   	   -2.4898470000 	   -0.8573610000 	   -0.1003520000
H   	   -2.4743880000 	    0.8245610000 	   -0.3390110000
H   	    2.5276540000 	    0.8829590000 	   -0.0084580000
H   	    0.1002090000 	    1.8138010000 	   -0.8678220000
H   	    0.0878630000 	    1.7746740000 	    0.9061210000
