12
tauto -356.637094641
N   	    2.4149440000 	   -0.3137770000 	   -0.2024910000
C   	    1.1837180000 	   -0.1427180000 	    0.0320940000
C   	    0.0186320000 	   -1.0876430000 	    0.1869080000
N   	    0.6626420000 	    1.1478990000 	    0.2317610000
O   	   -0.7377460000 	    1.1190930000 	   -0.0378670000
C   	   -1.1684480000 	   -0.1820960000 	   -0.0080900000
N   	   -2.3704270000 	   -0.5312520000 	   -0.1327010000
H   	    2.6336300000 	   -1.3068520000 	   -0.2595440000
H   	   -0.0032530000 	   -1.5254790000 	    1.1906290000
H   	    0.0296070000 	   -1.8986520000 	   -0.5437470000
H   	    1.0637090000 	    1.8487580000 	   -0.3840440000
H   	   -2.9752420000 	    0.2841380000 	   -0.2418060000
