15
tauto -304.733022838
C   	   -2.5864600000 	   -0.3682150000 	    0.0003040000
C   	   -1.1352230000 	   -0.0192390000 	    0.0000400000
N   	   -0.7141120000 	    1.1932270000 	   -0.0001400000
N   	    0.7141110000 	    1.1932270000 	   -0.0001450000
C   	    1.1352230000 	   -0.0192390000 	   -0.0000110000
C   	    2.5864600000 	   -0.3682140000 	    0.0003020000
C   	    0.0000000000 	   -0.9994320000 	   -0.0004610000
H   	   -3.1820710000 	    0.5471370000 	   -0.0009650000
H   	   -2.8473330000 	   -0.9617130000 	    0.8841440000
H   	   -2.8472080000 	   -0.9642380000 	   -0.8818600000
H   	    3.1820710000 	    0.5471360000 	   -0.0019050000
H   	    2.8470760000 	   -0.9651110000 	   -0.8813060000
H   	    2.8474660000 	   -0.9608380000 	    0.8846940000
H   	    0.0000130000 	   -1.6513610000 	    0.8822610000
H   	   -0.0000120000 	   -1.6501590000 	   -0.8841100000
