15
tauto -399.838144952
C   	    2.7970600000 	   -0.5466030000 	    0.7039930000
C   	    2.2437690000 	    0.2599710000 	   -0.4540620000
O   	    0.9780120000 	    0.8648550000 	   -0.1121950000
C   	   -0.0935600000 	    0.0689280000 	   -0.1982660000
C   	   -1.3344240000 	    0.8624700000 	    0.1901480000
C   	   -2.5510070000 	    0.0517610000 	    0.1668700000
N   	   -3.5322530000 	   -0.5577590000 	    0.1603390000
O   	   -0.0821960000 	   -1.0853170000 	   -0.5370930000
H   	    3.7886680000 	   -0.9321780000 	    0.4458000000
H   	    2.1457720000 	   -1.3962270000 	    0.9256240000
H   	    2.8921060000 	    0.0756830000 	    1.5990500000
H   	    2.1042770000 	   -0.3610860000 	   -1.3425850000
H   	    2.8863480000 	    1.1076900000 	   -0.7010570000
H   	   -1.4404910000 	    1.7091890000 	   -0.4962740000
H   	   -1.1884740000 	    1.2857780000 	    1.1892710000
