15
tauto -362.719914781
N   	    2.9313820000 	   -0.3290590000 	   -0.3238580000
C   	    1.8341070000 	   -0.3138930000 	    0.0406380000
C   	    0.4409070000 	   -0.3232820000 	    0.4776460000
C   	   -0.4183370000 	   -1.4698670000 	   -0.0800870000
C   	   -1.8538500000 	   -0.9347480000 	    0.0547830000
C   	   -1.7436670000 	    0.5457380000 	   -0.3228690000
C   	   -0.3325570000 	    0.9576990000 	    0.0743140000
O   	    0.1221780000 	    2.0696510000 	    0.0816120000
H   	    0.4265470000 	   -0.3512510000 	    1.5768890000
H   	   -0.2559350000 	   -2.4113830000 	    0.4501740000
H   	   -0.1696490000 	   -1.6316970000 	   -1.1353090000
H   	   -2.1921560000 	   -1.0367240000 	    1.0930430000
H   	   -2.5586490000 	   -1.4845560000 	   -0.5741300000
H   	   -2.4812140000 	    1.2031580000 	    0.1452200000
H   	   -1.8256610000 	    0.6887680000 	   -1.4083190000
