19
tauto -457.107853345
C   	    1.9225360000 	    1.1596700000 	    0.0010870000
C   	    1.0218830000 	   -0.0418980000 	   -0.0001410000
C   	   -0.4502790000 	   -0.0149760000 	   -0.0000610000
C   	   -1.1694450000 	   -1.2155110000 	    0.0006060000
C   	   -2.5569160000 	   -1.1972100000 	    0.0006480000
C   	   -3.2430380000 	    0.0163550000 	    0.0000410000
C   	   -2.5347360000 	    1.2134480000 	   -0.0006060000
C   	   -1.1437790000 	    1.1974150000 	   -0.0006470000
N   	    1.6955850000 	   -1.1396670000 	   -0.0010900000
N   	    3.0873380000 	   -0.8372200000 	   -0.0007980000
C   	    3.2280770000 	    0.4358360000 	    0.0005280000
H   	    1.7891740000 	    1.7924220000 	    0.8870570000
H   	    1.7894750000 	    1.7942350000 	   -0.8836310000
H   	   -0.6191660000 	   -2.1518450000 	    0.0010650000
H   	   -3.1080510000 	   -2.1339630000 	    0.0011800000
H   	   -4.3300120000 	    0.0275010000 	    0.0000830000
H   	   -3.0645400000 	    2.1623610000 	   -0.0010950000
H   	   -0.5971050000 	    2.1382000000 	   -0.0011670000
H   	    4.2139390000 	    0.8905280000 	    0.0010050000
