12
tauto -265.428995625
N   	    2.1107480000 	   -0.1375500000 	   -0.0270810000
C   	    0.8461670000 	    0.0200130000 	    0.0128930000
C   	   -0.0093190000 	    1.2095910000 	    0.0365470000
C   	   -1.2918890000 	    0.7965390000 	   -0.0036980000
N   	   -1.4300240000 	   -0.5708200000 	   -0.1277050000
C   	   -0.1067880000 	   -1.1722930000 	    0.0394060000
H   	    2.5711230000 	    0.7749640000 	   -0.0415580000
H   	    0.3371180000 	    2.2349850000 	    0.0431070000
H   	   -2.1860770000 	    1.4123000000 	    0.0112060000
H   	   -2.2186150000 	   -1.0119810000 	    0.3215830000
H   	    0.1232310000 	   -1.8799310000 	   -0.7618960000
H   	   -0.0208710000 	   -1.6948520000 	    1.0001680000
