12
tauto -265.432498879
C   	    1.4116990000 	   -0.1833730000 	    0.1325800000
N   	    0.5234790000 	   -1.3199800000 	   -0.1291100000
C   	   -0.7262420000 	   -1.1164720000 	   -0.0638830000
N   	   -1.3476620000 	    0.1030180000 	    0.1839720000
C   	   -0.5722140000 	    1.2525730000 	   -0.0370690000
C   	    0.7539520000 	    1.1576110000 	   -0.0879930000
H   	    2.2951530000 	   -0.2900050000 	   -0.5084070000
H   	    1.7801960000 	   -0.2732160000 	    1.1665870000
H   	   -1.4138980000 	   -1.9501110000 	   -0.2167870000
H   	   -2.3323680000 	    0.1574930000 	   -0.0250000000
H   	   -1.1234490000 	    2.1773290000 	   -0.1740090000
H   	    1.3604730000 	    2.0352140000 	   -0.2882250000
