12
tauto -265.432498376
N   	    2.0854170000 	    0.1594950000 	   -0.0002230000
C   	    0.8237240000 	    0.0515690000 	    0.0000780000
C   	   -0.0542260000 	   -1.1972520000 	    0.0002160000
N   	   -1.4436540000 	   -0.7428990000 	   -0.0002210000
C   	   -1.4592750000 	    0.5295780000 	   -0.0001600000
C   	   -0.1260010000 	    1.2324190000 	    0.0002120000
H   	    2.5207880000 	   -0.7672950000 	   -0.0003430000
H   	    0.1298680000 	   -1.8227500000 	    0.8825640000
H   	    0.1303550000 	   -1.8234840000 	   -0.8814940000
H   	   -2.4103090000 	    1.0629640000 	   -0.0003500000
H   	    0.0156750000 	    1.8681140000 	    0.8819280000
H   	    0.0159420000 	    1.8683950000 	   -0.8812730000
