13
tauto -232.395517327
C   	    1.1151830000 	    1.2642720000 	    0.0422880000
C   	    0.3412910000 	   -0.0000050000 	   -0.3450770000
C   	    1.1153370000 	   -1.2641880000 	    0.0422670000
C   	   -0.9962020000 	   -0.0000670000 	    0.3595780000
O   	   -2.0717240000 	   -0.0000300000 	   -0.1878880000
H   	    2.0994380000 	    1.2707550000 	   -0.4375170000
H   	    1.2736180000 	    1.3096780000 	    1.1271970000
H   	    0.5823810000 	    2.1713220000 	   -0.2615070000
H   	    0.1339200000 	   -0.0000040000 	   -1.4208270000
H   	    1.2736130000 	   -1.3096900000 	    1.1271950000
H   	    2.0996700000 	   -1.2704520000 	   -0.4373820000
H   	    0.5827350000 	   -2.1712930000 	   -0.2617100000
H   	   -0.9252420000 	   -0.0001450000 	    1.4733190000
