20
tauto -494.447942454
C   	   -3.3303980000 	   -0.7899280000 	   -0.1554810000
O   	   -1.9813490000 	   -1.2099800000 	   -0.0049250000
C   	   -1.0679580000 	   -0.2241460000 	    0.0896180000
N   	   -1.4164950000 	    1.0052500000 	    0.0023450000
C   	   -0.3481200000 	    1.9464910000 	    0.2406840000
N   	    0.9246140000 	    1.4863190000 	   -0.3157230000
C   	    1.2598000000 	    0.1931470000 	   -0.0327500000
O   	    2.5807270000 	   -0.0246120000 	   -0.1187160000
C   	    3.0154020000 	   -1.3681260000 	    0.0204140000
C   	    0.2902770000 	   -0.7177190000 	    0.2445110000
H   	   -3.9238600000 	   -1.7058950000 	   -0.1671720000
H   	   -3.4621840000 	   -0.2357890000 	   -1.0894660000
H   	   -3.6326270000 	   -0.1441180000 	    0.6741890000
H   	   -0.2516180000 	    2.1207880000 	    1.3298040000
H   	   -0.5894980000 	    2.9019790000 	   -0.2335030000
H   	    1.6951690000 	    2.1387680000 	   -0.3327470000
H   	    4.0975620000 	   -1.3480890000 	   -0.1113470000
H   	    2.5568150000 	   -2.0050740000 	   -0.7437510000
H   	    2.7692750000 	   -1.7546350000 	    1.0156200000
H   	    0.4750830000 	   -1.7704920000 	    0.3991680000
