24
tauto -422.659449612
C   	   -3.2895560000 	   -1.1145780000 	   -0.4413360000
C   	   -2.4711540000 	   -0.5426020000 	    0.7198610000
C   	   -1.2184410000 	    0.1457840000 	    0.2341320000
N   	   -1.1401570000 	    1.4227920000 	    0.3529840000
C   	    0.0394120000 	    2.0214120000 	   -0.2420550000
N   	    1.2257510000 	    1.2004090000 	   -0.0439770000
C   	    1.1008220000 	   -0.1311770000 	   -0.3380140000
C   	    2.3665770000 	   -0.9087000000 	   -0.5722910000
C   	    3.2471600000 	   -0.9794360000 	    0.6802600000
C   	   -0.1388060000 	   -0.6796430000 	   -0.3018150000
H   	   -4.1944200000 	   -1.6095650000 	   -0.0738310000
H   	   -2.7152370000 	   -1.8502020000 	   -1.0160380000
H   	   -3.5927420000 	   -0.3169950000 	   -1.1278760000
H   	   -2.1998290000 	   -1.3500730000 	    1.4125540000
H   	   -3.0611640000 	    0.1934000000 	    1.2735040000
H   	    0.2198910000 	    3.0000090000 	    0.2126220000
H   	   -0.1527480000 	    2.1750850000 	   -1.3223650000
H   	    2.1212430000 	    1.6377600000 	   -0.2012960000
H   	    2.9291770000 	   -0.4474440000 	   -1.3956210000
H   	    2.0989050000 	   -1.9190970000 	   -0.8971830000
H   	    3.5452570000 	    0.0174200000 	    1.0218860000
H   	    4.1576900000 	   -1.5530680000 	    0.4808240000
H   	    2.7075020000 	   -1.4625790000 	    1.5007510000
H   	   -0.2787490000 	   -1.7434100000 	   -0.4634290000
