17
tauto -438.905526338
N   	    2.5305540000 	    1.3120780000 	   -0.0766860000
C   	    1.6112040000 	    0.2568170000 	   -0.0049470000
C   	    1.8281300000 	   -1.0785630000 	    0.0008410000
O   	    0.6526700000 	   -1.7985500000 	   -0.0032190000
C   	   -0.3458030000 	   -0.8809730000 	    0.0043540000
C   	    0.1716370000 	    0.4167740000 	   -0.0063210000
C   	   -0.7036370000 	    1.5079040000 	   -0.0191460000
C   	   -2.0663020000 	    1.2562620000 	   -0.0086220000
C   	   -2.5615080000 	   -0.0596360000 	    0.0101700000
C   	   -1.7090470000 	   -1.1536340000 	    0.0143360000
H   	    3.4840860000 	    1.0109700000 	    0.0817520000
H   	    2.3056750000 	    2.0570160000 	    0.5723350000
H   	    2.7328050000 	   -1.6695230000 	   -0.0070090000
H   	   -0.3254010000 	    2.5270100000 	   -0.0491260000
H   	   -2.7673700000 	    2.0864880000 	   -0.0201940000
H   	   -3.6359650000 	   -0.2230050000 	    0.0176040000
H   	   -2.0771120000 	   -2.1748050000 	    0.0232100000
