12
tauto -265.435097488
N   	    2.0696690000 	    0.0071930000 	    0.0688830000
C   	    0.7001450000 	    0.0913460000 	    0.0017910000
C   	   -0.1162510000 	    1.1706300000 	   -0.0014440000
C   	   -1.4710150000 	    0.6311850000 	   -0.0068520000
N   	   -1.5584810000 	   -0.6536940000 	   -0.0078760000
C   	   -0.1835870000 	   -1.1309870000 	    0.0077940000
H   	    2.5840750000 	    0.8418500000 	   -0.1711050000
H   	    2.4896490000 	   -0.8359880000 	   -0.2931930000
H   	    0.1593230000 	    2.2185480000 	    0.0031370000
H   	   -2.3722180000 	    1.2441190000 	   -0.0147110000
H   	   -0.0033240000 	   -1.7755830000 	   -0.8628250000
H   	   -0.0115730000 	   -1.7404750000 	    0.9039150000
