18
tauto -514.06643376
O   	    3.3969050000 	   -0.5026290000 	   -0.0001180000
N   	    2.1346290000 	   -1.0975730000 	   -0.0004890000
C   	    1.2370020000 	   -0.1937460000 	    0.0000460000
C   	   -0.2069340000 	   -0.4059810000 	   -0.0000420000
C   	   -1.0024090000 	   -1.5461780000 	    0.0002370000
C   	   -2.3839270000 	   -1.3873320000 	    0.0002220000
C   	   -2.9477280000 	   -0.1066290000 	   -0.0000500000
C   	   -2.1602230000 	    1.0415700000 	   -0.0002830000
C   	   -0.7834590000 	    0.8634940000 	   -0.0002470000
O   	    0.1222470000 	    1.8770040000 	   -0.0004370000
C   	    1.4387940000 	    1.3047790000 	    0.0008550000
H   	    3.9925500000 	   -1.2623450000 	   -0.0006670000
H   	   -0.5439830000 	   -2.5311560000 	    0.0004690000
H   	   -3.0309000000 	   -2.2597660000 	    0.0004680000
H   	   -4.0299140000 	   -0.0018090000 	   -0.0000380000
H   	   -2.5926230000 	    2.0368030000 	   -0.0004310000
H   	    1.9801230000 	    1.6426240000 	    0.8908000000
H   	    1.9824240000 	    1.6437900000 	   -0.8871700000
