14
tauto -324.585513229
C   	   -2.5202100000 	   -0.2559210000 	    0.0016820000
N   	   -1.4989740000 	    0.7768140000 	   -0.0039850000
C   	   -0.2919930000 	    0.3782890000 	   -0.0026230000
C   	    0.9084520000 	    1.2114140000 	    0.0009030000
C   	    1.9605350000 	    0.3841120000 	    0.0013900000
O   	    1.6663820000 	   -0.9390870000 	    0.0003360000
C   	    0.2390880000 	   -1.0506400000 	   -0.0012310000
H   	   -3.5045580000 	    0.2032650000 	   -0.1200930000
H   	   -2.5261510000 	   -0.8117950000 	    0.9514970000
H   	   -2.3872870000 	   -0.9894020000 	   -0.8092280000
H   	    0.9206000000 	    2.2916700000 	    0.0019710000
H   	    3.0225000000 	    0.6005790000 	    0.0022420000
H   	   -0.0708530000 	   -1.6100530000 	    0.8894360000
H   	   -0.0677190000 	   -1.6127930000 	   -0.8913440000
