21
tauto -512.466968853
N   	   -4.0156650000 	   -0.8024490000 	    0.1199530000
C   	   -2.7429750000 	   -0.2161500000 	    0.0447000000
C   	   -1.5109070000 	   -0.8142650000 	    0.1607620000
N   	   -0.5756680000 	    0.1631930000 	   -0.0534660000
C   	    0.8345320000 	    0.0308100000 	   -0.0244350000
C   	    1.6231910000 	    1.1587760000 	    0.1980510000
C   	    3.0054700000 	    1.0293070000 	    0.2343790000
C   	    3.6075680000 	   -0.2146730000 	    0.0615140000
C   	    2.8125540000 	   -1.3333240000 	   -0.1634270000
C   	    1.4275710000 	   -1.2154880000 	   -0.2159530000
N   	   -1.1389450000 	    1.3530910000 	   -0.2907180000
C   	   -2.4435990000 	    1.1377340000 	   -0.2404160000
H   	   -4.0220640000 	   -1.6542510000 	    0.6659870000
H   	   -4.7090610000 	   -0.1655430000 	    0.4909410000
H   	   -1.2341520000 	   -1.8310320000 	    0.3985830000
H   	    1.1389050000 	    2.1194990000 	    0.3335380000
H   	    3.6169500000 	    1.9111460000 	    0.4071720000
H   	    4.6892760000 	   -0.3103720000 	    0.0971870000
H   	    3.2699530000 	   -2.3078090000 	   -0.3131310000
H   	    0.8167960000 	   -2.0882230000 	   -0.4278840000
H   	   -3.1350830000 	    1.9533800000 	   -0.4138200000
