11
tauto -285.293672173
N   	    2.1008950000 	    0.0479310000 	   -0.0920660000
C   	    0.7007640000 	   -0.0004130000 	   -0.0106640000
C   	   -0.1139140000 	   -1.0889010000 	    0.0066810000
O   	   -1.4253100000 	   -0.7020270000 	    0.0103370000
C   	   -1.4331280000 	    0.6456500000 	    0.0055780000
C   	   -0.1720640000 	    1.1414570000 	   -0.0109320000
H   	    2.5353910000 	   -0.8326090000 	    0.1536640000
H   	    2.4929520000 	    0.7836640000 	    0.4820430000
H   	    0.0670060000 	   -2.1534230000 	    0.0026850000
H   	   -2.4074400000 	    1.1127210000 	    0.0123310000
H   	    0.1183520000 	    2.1835920000 	   -0.0329390000
