18
tauto -456.185554543
C   	   -3.4739910000 	   -0.5856560000 	    0.0147310000
C   	   -2.1595570000 	    0.1702680000 	   -0.0074280000
N   	   -1.0517800000 	   -0.6541650000 	   -0.0135810000
C   	    0.3014770000 	   -0.2922530000 	   -0.0062280000
C   	    0.7595700000 	    1.0268950000 	   -0.0019070000
C   	    2.1343530000 	    1.2355830000 	    0.0050590000
N   	    3.0585050000 	    0.2738300000 	    0.0076680000
C   	    2.5993750000 	   -0.9792400000 	    0.0031470000
C   	    1.2547240000 	   -1.3153400000 	   -0.0037270000
O   	   -2.0984450000 	    1.3831870000 	   -0.0060690000
H   	   -3.6116140000 	   -1.0795980000 	    0.9829180000
H   	   -3.5130340000 	   -1.3504220000 	   -0.7680390000
H   	   -4.2833860000 	    0.1288290000 	   -0.1356950000
H   	   -1.2312220000 	   -1.6480320000 	   -0.0140650000
H   	    0.0647180000 	    1.8549970000 	   -0.0038040000
H   	    2.5135760000 	    2.2565620000 	    0.0087170000
H   	    3.3522170000 	   -1.7661810000 	    0.0051460000
H   	    0.9535260000 	   -2.3608510000 	   -0.0071040000
