15
tauto -358.861012523
N   	   -2.7244650000 	    0.4299100000 	    0.0998520000
N   	   -1.7868610000 	   -0.5744340000 	   -0.1545800000
C   	   -0.4416120000 	   -0.2534600000 	   -0.0617350000
C   	    0.5162160000 	   -1.2738300000 	   -0.0031510000
C   	    1.8572880000 	   -0.9280450000 	    0.0455020000
N   	    2.3178320000 	    0.3256780000 	    0.0444190000
C   	    1.3890740000 	    1.2841270000 	   -0.0101650000
C   	    0.0197500000 	    1.0660220000 	   -0.0624750000
H   	   -3.0877620000 	    0.3680190000 	    1.0475710000
H   	   -3.4908460000 	    0.3423120000 	   -0.5574180000
H   	   -2.0216560000 	   -1.5089410000 	    0.1575620000
H   	    0.2186590000 	   -2.3203390000 	   -0.0017760000
H   	    2.6118020000 	   -1.7128340000 	    0.0905610000
H   	    1.7653420000 	    2.3068580000 	   -0.0099320000
H   	   -0.6853740000 	    1.8879570000 	   -0.1022590000
