34
tauto -857.787504452
C   	    5.9631790000 	   -0.0231380000 	    0.1886180000
C   	    5.0759860000 	    0.6632380000 	    1.0137800000
C   	    3.7067080000 	    0.4476640000 	    0.9186340000
C   	    5.4644480000 	   -0.9301480000 	   -0.7405500000
C   	    4.0943970000 	   -1.1362320000 	   -0.8577690000
C   	    3.2039960000 	   -0.4482660000 	   -0.0302690000
N   	    1.8260200000 	   -0.7229320000 	   -0.1166850000
C   	    0.8025810000 	    0.2191810000 	   -0.1261160000
C   	    1.0220630000 	    1.5786390000 	   -0.2618330000
C   	   -0.0832680000 	    2.4382230000 	   -0.3021580000
N   	   -1.3422830000 	    2.0579320000 	   -0.2384770000
C   	   -1.5736240000 	    0.7358470000 	   -0.0988560000
C   	   -2.9656100000 	    0.2907930000 	   -0.0311630000
N   	   -3.9400840000 	    1.2187530000 	   -0.1471460000
C   	   -5.1904510000 	    0.8129490000 	   -0.0873400000
C   	   -5.5799560000 	   -0.5284720000 	    0.0919410000
C   	   -4.5954930000 	   -1.4769930000 	    0.2117220000
C   	   -3.2440840000 	   -1.0798090000 	    0.1500610000
C   	   -2.1672060000 	   -2.0201490000 	    0.2829330000
C   	   -0.8799940000 	   -1.6122750000 	    0.2071940000
C   	   -0.5478060000 	   -0.2289930000 	   -0.0105950000
H   	    7.0331500000 	    0.1440780000 	    0.2738930000
H   	    5.4525500000 	    1.3645650000 	    1.7540650000
H   	    3.0223720000 	    0.9592670000 	    1.5894780000
H   	    6.1434050000 	   -1.4768930000 	   -1.3898790000
H   	    3.7082400000 	   -1.8321980000 	   -1.6001940000
H   	    1.6003190000 	   -1.6014230000 	   -0.5582680000
H   	    2.0244020000 	    1.9784940000 	   -0.3690640000
H   	    0.0870090000 	    3.5090020000 	   -0.4150680000
H   	   -5.9505400000 	    1.5879310000 	   -0.1851450000
H   	   -6.6328530000 	   -0.7913500000 	    0.1341970000
H   	   -4.8377470000 	   -2.5283660000 	    0.3544590000
H   	   -2.4077430000 	   -3.0658900000 	    0.4615840000
H   	   -0.0833200000 	   -2.3358330000 	    0.3566870000
