25
tauto -647.872168671
O   	   -0.1978820000 	   -1.8344850000 	   -0.2285790000
C   	   -0.4698380000 	   -0.6555140000 	   -0.0909200000
C   	   -1.8940700000 	   -0.1770830000 	   -0.0474690000
C   	   -2.8603900000 	   -1.1018320000 	    0.3503160000
C   	   -4.1975940000 	   -0.7323220000 	    0.4142700000
C   	   -4.5812190000 	    0.5602880000 	    0.0643370000
C   	   -3.6252860000 	    1.4798180000 	   -0.3561490000
C   	   -2.2843390000 	    1.1134440000 	   -0.4111050000
N   	    0.4774910000 	    0.3346010000 	    0.0568280000
C   	    1.8725020000 	    0.2044840000 	    0.0433020000
C   	    2.5484310000 	   -0.9887260000 	   -0.2184480000
C   	    3.9389880000 	   -0.9612780000 	   -0.2083190000
N   	    4.6852140000 	    0.1172220000 	    0.0333860000
C   	    4.0192020000 	    1.2468690000 	    0.2814530000
C   	    2.6370780000 	    1.3474060000 	    0.2982620000
H   	   -2.5406140000 	   -2.1085850000 	    0.6025070000
H   	   -4.9437190000 	   -1.4544860000 	    0.7344150000
H   	   -5.6282320000 	    0.8483390000 	    0.1107250000
H   	   -3.9235590000 	    2.4824610000 	   -0.6504430000
H   	   -1.5550080000 	    1.8324460000 	   -0.7790110000
H   	    0.1338380000 	    1.2515880000 	    0.3008570000
H   	    2.0067760000 	   -1.9031040000 	   -0.4154990000
H   	    4.4860110000 	   -1.8812870000 	   -0.4094740000
H   	    4.6264880000 	    2.1290180000 	    0.4793840000
H   	    2.1613580000 	    2.3034210000 	    0.5064980000
