32
tauto -502.461053664
C   	    1.0221850000 	    2.6092200000 	    0.1445460000
C   	   -0.2444120000 	    1.7500360000 	    0.1840560000
C   	   -1.3883610000 	    2.4732590000 	   -0.5296060000
C   	    0.0081970000 	    0.3713960000 	   -0.4546710000
C   	    1.2399980000 	   -0.3300100000 	    0.1059220000
C   	    1.2682250000 	   -0.5883160000 	    1.5962750000
N   	    2.1493050000 	   -0.6740600000 	   -0.7162960000
C   	    3.3240900000 	   -1.3517640000 	   -0.1927580000
C   	   -1.1545660000 	   -0.6066390000 	   -0.3323500000
C   	   -1.1871050000 	   -1.7080510000 	   -1.3695280000
N   	   -1.9777360000 	   -0.4749970000 	    0.6287420000
C   	   -3.0583350000 	   -1.4391010000 	    0.7516460000
H   	    0.8270230000 	    3.6005720000 	    0.5687040000
H   	    1.3674630000 	    2.7470930000 	   -0.8879620000
H   	    1.8486440000 	    2.1627220000 	    0.7086940000
H   	   -0.5443010000 	    1.5966520000 	    1.2276030000
H   	   -1.1457300000 	    2.6336490000 	   -1.5885050000
H   	   -1.5633420000 	    3.4562270000 	   -0.0775420000
H   	   -2.3193850000 	    1.9034710000 	   -0.4680800000
H   	    0.2196540000 	    0.5153420000 	   -1.5225160000
H   	    0.2938490000 	   -0.3938800000 	    2.0508870000
H   	    2.0159520000 	    0.0492560000 	    2.0851210000
H   	    1.5476300000 	   -1.6272650000 	    1.8055910000
H   	    4.0672580000 	   -1.4474960000 	   -0.9886840000
H   	    3.0783070000 	   -2.3630550000 	    0.1611880000
H   	    3.7865400000 	   -0.8124980000 	    0.6458420000
H   	   -0.2273010000 	   -1.7793330000 	   -1.8882850000
H   	   -1.9655200000 	   -1.5020770000 	   -2.1156690000
H   	   -1.4159400000 	   -2.6797650000 	   -0.9193080000
H   	   -3.7796470000 	   -1.0771840000 	    1.4891150000
H   	   -2.6822500000 	   -2.4108970000 	    1.1007190000
H   	   -3.5893840000 	   -1.6083180000 	   -0.1952290000
