25
tauto -610.759101584
N   	    0.0000040000 	    2.6176740000 	    0.0401860000
C   	    0.0000010000 	    1.2404020000 	    0.0239320000
C   	    1.2135700000 	    0.5166090000 	   -0.0055420000
C   	    2.4986130000 	    1.1430970000 	   -0.0582770000
C   	    3.6425690000 	    0.4032020000 	   -0.0625440000
C   	    3.5747800000 	   -1.0200080000 	   -0.0117300000
C   	    2.3699530000 	   -1.6509590000 	    0.0250620000
C   	    1.1426910000 	   -0.9100540000 	    0.0200360000
N   	   -0.0000010000 	   -1.6065640000 	    0.0463390000
C   	   -1.1426920000 	   -0.9100540000 	    0.0200360000
C   	   -2.3699540000 	   -1.6509580000 	    0.0250610000
C   	   -3.5747810000 	   -1.0200060000 	   -0.0117300000
C   	   -3.6425700000 	    0.4032030000 	   -0.0625430000
C   	   -2.4986140000 	    1.1430990000 	   -0.0582760000
C   	   -1.2135700000 	    0.5166100000 	   -0.0055420000
H   	    0.8369030000 	    3.0599010000 	    0.3872920000
H   	   -0.8368930000 	    3.0599050000 	    0.3872920000
H   	    2.5748890000 	    2.2254630000 	   -0.1327590000
H   	    4.6103510000 	    0.8944470000 	   -0.1141860000
H   	    4.4955110000 	   -1.5980340000 	   -0.0111210000
H   	    2.2846140000 	   -2.7332150000 	    0.0541110000
H   	   -2.2846160000 	   -2.7332140000 	    0.0541090000
H   	   -4.4955120000 	   -1.5980330000 	   -0.0111220000
H   	   -4.6103520000 	    0.8944490000 	   -0.1141850000
H   	   -2.5748900000 	    2.2254640000 	   -0.1327580000
