19
tauto -457.163125146
N   	   -1.8604380000 	    2.0233990000 	   -0.0247610000
C   	   -1.4078710000 	    0.7169450000 	   -0.0029230000
C   	   -2.2753320000 	   -0.3543630000 	   -0.0227590000
C   	   -1.7554260000 	   -1.6640830000 	   -0.0226870000
N   	   -0.4812740000 	   -1.9709970000 	    0.0067630000
C   	    0.3963620000 	   -0.9244850000 	    0.0126680000
C   	    1.7831460000 	   -1.2303910000 	    0.0354150000
C   	    2.7238260000 	   -0.2359710000 	    0.0207580000
C   	    2.3251730000 	    1.1207250000 	   -0.0281090000
C   	    0.9941810000 	    1.4463850000 	   -0.0446920000
C   	   -0.0013640000 	    0.4354860000 	   -0.0093410000
H   	   -2.8395580000 	    2.1392280000 	    0.1945060000
H   	   -1.2815970000 	    2.7034340000 	    0.4452820000
H   	   -3.3513630000 	   -0.1989350000 	   -0.0266030000
H   	   -2.4523900000 	   -2.5027220000 	   -0.0336970000
H   	    2.0558630000 	   -2.2813990000 	    0.0597680000
H   	    3.7821130000 	   -0.4838270000 	    0.0364390000
H   	    3.0778390000 	    1.9038400000 	   -0.0617290000
H   	    0.7049050000 	    2.4920890000 	   -0.1179530000
