18
tauto -473.162284164
N   	   -1.9470520000 	    1.9491810000 	   -0.0321480000
C   	   -1.4139880000 	    0.6782200000 	   -0.0027050000
C   	   -2.2124800000 	   -0.4516490000 	   -0.0188770000
N   	   -1.7436070000 	   -1.7163330000 	   -0.0186000000
N   	   -0.4714420000 	   -1.9536890000 	    0.0061260000
C   	    0.3962360000 	   -0.8986950000 	    0.0101500000
C   	    1.7840670000 	   -1.2077620000 	    0.0282800000
C   	    2.7139650000 	   -0.2070870000 	    0.0173090000
C   	    2.3033600000 	    1.1518070000 	   -0.0218870000
C   	    0.9747110000 	    1.4770670000 	   -0.0354580000
C   	   -0.0110560000 	    0.4530110000 	   -0.0076470000
H   	   -2.9325360000 	    2.0114980000 	    0.1805660000
H   	   -1.4079340000 	    2.6761890000 	    0.4141470000
H   	   -3.2972850000 	   -0.3669330000 	   -0.0299960000
H   	    2.0586280000 	   -2.2582660000 	    0.0473720000
H   	    3.7745780000 	   -0.4433520000 	    0.0299740000
H   	    3.0546100000 	    1.9365280000 	   -0.0491960000
H   	    0.6757610000 	    2.5207520000 	   -0.0955060000
