15
tauto -507.991621696
O   	    3.2462890000 	   -0.5800060000 	   -0.1030890000
N   	    2.2152640000 	    0.0638570000 	   -0.0387390000
N   	    1.1068760000 	   -0.6702830000 	    0.3151880000
C   	   -0.2324450000 	   -0.2768490000 	    0.1382440000
C   	   -1.1655630000 	   -1.3015320000 	   -0.0334630000
C   	   -2.5058600000 	   -0.9653450000 	   -0.1506590000
N   	   -2.9675290000 	    0.2856460000 	   -0.1179520000
C   	   -2.0595030000 	    1.2466680000 	    0.0484420000
C   	   -0.6911350000 	    1.0378110000 	    0.1907910000
O   	    2.0881180000 	    1.2566530000 	   -0.2210210000
H   	    1.3352830000 	   -1.6543790000 	    0.2757060000
H   	   -0.8558760000 	   -2.3427610000 	   -0.0777960000
H   	   -3.2490360000 	   -1.7494440000 	   -0.2844220000
H   	   -2.4444060000 	    2.2645280000 	    0.0786220000
H   	   -0.0164700000 	    1.8698210000 	    0.3311580000
