40
tauto -861.426602234
C   	    4.8534810000 	   -1.2347430000 	    1.0779650000
C   	    4.4409550000 	   -1.6380290000 	   -0.3400240000
C   	    4.2109270000 	   -0.4071810000 	   -1.2248760000
C   	    3.8383340000 	   -0.2702570000 	    1.6965200000
C   	    3.6312540000 	    0.9637710000 	    0.8146280000
C   	    3.2096790000 	    0.5842620000 	   -0.6170010000
N   	    1.8704200000 	    0.0117270000 	   -0.6862000000
C   	    0.7226170000 	    0.7330910000 	   -0.4595100000
C   	    0.7132260000 	    2.1188490000 	   -0.3598660000
C   	   -0.5005780000 	    2.7764580000 	   -0.1324950000
N   	   -1.6696460000 	    2.1892510000 	    0.0148670000
C   	   -1.6874220000 	    0.8435390000 	   -0.0959560000
C   	   -2.9769390000 	    0.1700210000 	    0.0608160000
N   	   -4.0627210000 	    0.9243000000 	    0.3399820000
C   	   -5.2200400000 	    0.3149180000 	    0.4824490000
C   	   -5.4036840000 	   -1.0760280000 	    0.3597370000
C   	   -4.3064320000 	   -1.8491400000 	    0.0749280000
C   	   -3.0487330000 	   -1.2313170000 	   -0.0808410000
C   	   -1.8642970000 	   -1.9813630000 	   -0.3857440000
C   	   -0.6693140000 	   -1.3607260000 	   -0.5143280000
C   	   -0.5406200000 	    0.0633830000 	   -0.3536730000
H   	    5.8370120000 	   -0.7443710000 	    1.0380600000
H   	    4.9703190000 	   -2.1245670000 	    1.7077590000
H   	    3.5287230000 	   -2.2530030000 	   -0.2922840000
H   	    5.2050950000 	   -2.2787420000 	   -0.7952450000
H   	    3.8679960000 	   -0.7017490000 	   -2.2233940000
H   	    5.1677670000 	    0.1158810000 	   -1.3532670000
H   	    4.1653870000 	    0.0382220000 	    2.6961300000
H   	    2.8770020000 	   -0.7861500000 	    1.8342320000
H   	    4.5703610000 	    1.5324750000 	    0.7575510000
H   	    2.8823550000 	    1.6283050000 	    1.2602930000
H   	    3.2049440000 	    1.4839660000 	   -1.2442150000
H   	    1.8200380000 	   -0.9668200000 	   -0.4516850000
H   	    1.6248980000 	    2.7003990000 	   -0.4410220000
H   	   -0.5001350000 	    3.8640540000 	   -0.0520160000
H   	   -6.0729630000 	    0.9545790000 	    0.7095650000
H   	   -6.3899170000 	   -1.5121430000 	    0.4888990000
H   	   -4.3893340000 	   -2.9289540000 	   -0.0332610000
H   	   -1.9490060000 	   -3.0573720000 	   -0.5210600000
H   	    0.1986140000 	   -1.9579940000 	   -0.7819610000
