42
tauto -1157.12193263
C   	   -6.1424520000 	   -0.4077950000 	    0.7627220000
C   	   -4.6565620000 	   -0.1364970000 	    0.5819180000
C   	   -3.9439040000 	   -1.2572610000 	   -0.1358540000
C   	   -2.4937990000 	   -1.0990570000 	   -0.4010830000
C   	   -1.7392810000 	   -2.0398910000 	   -1.0531110000
N   	   -0.4468900000 	   -1.6500580000 	   -1.1084000000
N   	   -0.3849770000 	   -0.3713360000 	   -0.6140740000
C   	    0.8481550000 	    0.2205130000 	   -0.1534700000
O   	    1.2330140000 	   -0.4108120000 	    1.0864870000
C   	    2.3176590000 	   -1.2014510000 	    0.8175360000
C   	    2.9388940000 	   -2.0792420000 	    1.6798310000
C   	    4.0570190000 	   -2.7629910000 	    1.1870380000
C   	    4.5120010000 	   -2.5610430000 	   -0.1120470000
C   	    3.8590420000 	   -1.6715340000 	   -0.9746220000
C   	    2.7586180000 	   -0.9964080000 	   -0.4847440000
N   	    1.8993430000 	   -0.0562690000 	   -1.1179990000
C   	   -1.5958630000 	   -0.0139830000 	   -0.1048230000
N   	   -1.8098940000 	    1.1551700000 	    0.4799580000
N   	   -0.7623600000 	    1.9973360000 	    0.4641740000
C   	    0.4434220000 	    1.6544520000 	    0.1101290000
C   	    1.4547130000 	    2.7427120000 	    0.0518760000
C   	    1.0710840000 	    4.1115910000 	    0.5672380000
C   	    0.3483130000 	    4.9182720000 	   -0.5189630000
O   	    2.5529730000 	    2.5506620000 	   -0.4576600000
O   	   -4.5046540000 	   -2.2741940000 	   -0.5039510000
H   	   -6.6211290000 	    0.4229540000 	    1.2896780000
H   	   -6.3068890000 	   -1.3245960000 	    1.3359530000
H   	   -6.6375520000 	   -0.5361370000 	   -0.2042210000
H   	   -4.1485410000 	    0.0227020000 	    1.5426790000
H   	   -4.4695980000 	    0.7941180000 	    0.0303500000
H   	   -2.0645610000 	   -2.9764210000 	   -1.4858670000
H   	    0.2398530000 	   -1.8944460000 	   -1.8112210000
H   	    2.5777110000 	   -2.2197720000 	    2.6933760000
H   	    4.5773840000 	   -3.4622500000 	    1.8355850000
H   	    5.3847170000 	   -3.1018790000 	   -0.4667810000
H   	    4.2089190000 	   -1.5110480000 	   -1.9905670000
H   	    2.3818180000 	    0.8149650000 	   -1.3418460000
H   	    2.0056350000 	    4.6078850000 	    0.8457010000
H   	    0.4301660000 	    4.0195010000 	    1.4470780000
H   	    0.9549670000 	    4.9784100000 	   -1.4288330000
H   	    0.1599320000 	    5.9378990000 	   -0.1694070000
H   	   -0.6124070000 	    4.4566670000 	   -0.7637160000
