36
tauto -875.246609989
C   	   -4.1656910000 	   -2.8666380000 	    0.0498110000
C   	   -3.1127580000 	   -1.8037070000 	    0.0089330000
C   	   -1.7807060000 	   -2.0405630000 	   -0.0085790000
N   	   -0.8185590000 	   -1.0700360000 	   -0.0606580000
C   	   -1.1997080000 	    0.1841880000 	   -0.0779270000
C   	   -0.1792410000 	    1.2504910000 	   -0.1509390000
C   	   -0.6396640000 	    2.6832230000 	   -0.2633610000
C   	   -1.9286520000 	    2.8785180000 	    0.5223710000
C   	   -2.9908620000 	    1.9383940000 	   -0.0130080000
N   	    1.1029780000 	    1.0696480000 	   -0.1260810000
N   	    1.6691720000 	   -0.1188520000 	   -0.0554660000
C   	    3.0631690000 	   -0.2357250000 	   -0.0138110000
C   	    3.9008330000 	    0.8814160000 	   -0.0389740000
C   	    5.2779420000 	    0.7043690000 	    0.0049000000
C   	    5.8355080000 	   -0.5700190000 	    0.0745230000
C   	    4.9939840000 	   -1.6784090000 	    0.0991200000
C   	    3.6148780000 	   -1.5174130000 	    0.0553040000
N   	   -2.5280730000 	    0.5401410000 	   -0.0286290000
C   	   -3.5610580000 	   -0.4228350000 	   -0.0193500000
O   	   -4.7314600000 	   -0.0711080000 	   -0.0263600000
H   	   -3.7163730000 	   -3.8634010000 	    0.0867980000
H   	   -4.8139050000 	   -2.8029060000 	   -0.8305820000
H   	   -4.8118730000 	   -2.7359030000 	    0.9241540000
H   	   -1.4014050000 	   -3.0611330000 	    0.0107080000
H   	   -0.8202480000 	    2.9416440000 	   -1.3173430000
H   	    0.1645190000 	    3.3316550000 	    0.0936190000
H   	   -2.2954770000 	    3.9063870000 	    0.4342200000
H   	   -1.7561320000 	    2.6811970000 	    1.5878760000
H   	   -3.2778980000 	    2.2153520000 	   -1.0349010000
H   	   -3.9019900000 	    1.9531400000 	    0.5866010000
H   	    1.0656010000 	   -0.9407900000 	   -0.0377760000
H   	    3.4609990000 	    1.8710510000 	   -0.0934230000
H   	    5.9244260000 	    1.5784660000 	   -0.0149790000
H   	    6.9137560000 	   -0.6979830000 	    0.1097470000
H   	    5.4122400000 	   -2.6803890000 	    0.1536040000
H   	    2.9589710000 	   -2.3855780000 	    0.0743210000
