37
tauto -859.233998026
C   	   -4.0206320000 	   -2.9900450000 	    0.2072240000
C   	   -3.0341490000 	   -1.8688720000 	    0.0967700000
C   	   -1.6897930000 	   -2.0264120000 	    0.0456040000
N   	   -0.7854840000 	   -1.0116030000 	   -0.0676770000
C   	   -1.2363990000 	    0.2251150000 	   -0.1138470000
C   	   -0.2924140000 	    1.3336010000 	   -0.2387690000
C   	   -0.8316110000 	    2.7363940000 	   -0.3980630000
C   	   -2.1134040000 	    2.8873040000 	    0.4104950000
C   	   -3.1278490000 	    1.8658930000 	   -0.0659350000
C   	    1.0556000000 	    1.1431880000 	   -0.2141950000
N   	    1.7270350000 	   -0.0293330000 	   -0.1230490000
C   	    3.1158000000 	   -0.1804180000 	   -0.0264500000
C   	    3.9657960000 	    0.8617890000 	    0.3554670000
C   	    5.3387140000 	    0.6500170000 	    0.4228630000
C   	    5.8836670000 	   -0.5967330000 	    0.1355450000
C   	    5.0342100000 	   -1.6400140000 	   -0.2244490000
C   	    3.6641730000 	   -1.4362640000 	   -0.3100870000
N   	   -2.5847790000 	    0.4984760000 	   -0.0415970000
C   	   -3.5603440000 	   -0.5203770000 	    0.0328620000
O   	   -4.7496210000 	   -0.2322820000 	    0.0468860000
H   	   -3.5117270000 	   -3.9578760000 	    0.2512410000
H   	   -4.7063190000 	   -2.9905130000 	   -0.6468250000
H   	   -4.6386730000 	   -2.8759670000 	    1.1042740000
H   	   -1.2545700000 	   -3.0244940000 	    0.0880460000
H   	   -1.0537200000 	    2.9572430000 	   -1.4530370000
H   	   -0.0788090000 	    3.4652250000 	   -0.0769480000
H   	   -2.5439860000 	    3.8876030000 	    0.2936300000
H   	   -1.9045290000 	    2.7379120000 	    1.4770350000
H   	   -3.4527610000 	    2.0897170000 	   -1.0896750000
H   	   -4.0257740000 	    1.8517650000 	    0.5534680000
H   	    1.6858660000 	    2.0262570000 	   -0.2997660000
H   	    1.1252550000 	   -0.8531870000 	   -0.1288200000
H   	    3.5620470000 	    1.8330140000 	    0.6263460000
H   	    5.9863020000 	    1.4709920000 	    0.7205210000
H   	    6.9562320000 	   -0.7563550000 	    0.1985280000
H   	    5.4417290000 	   -2.6226420000 	   -0.4481700000
H   	    3.0048160000 	   -2.2482080000 	   -0.6089000000
