40
tauto -1064.72716883
C   	   -1.5790160000 	    3.8411060000 	   -0.2188280000
C   	   -0.9609500000 	    3.0525250000 	    0.9399710000
C   	    0.2808500000 	    2.3148420000 	    0.4818550000
C   	    0.2861310000 	    0.8528160000 	    0.2532470000
C   	   -0.9525950000 	    0.0424280000 	    0.2272460000
N   	   -2.0141800000 	    0.5468370000 	   -0.3033440000
C   	   -3.1910680000 	   -0.1891920000 	   -0.3635190000
C   	   -4.3331320000 	    0.3863280000 	   -0.9349030000
C   	   -5.5114860000 	   -0.3317730000 	   -1.0201080000
C   	   -5.5623630000 	   -1.6446260000 	   -0.5341610000
C   	   -4.4454090000 	   -2.2339170000 	    0.0326280000
C   	   -3.2564510000 	   -1.5029440000 	    0.1186240000
N   	   -2.1045810000 	   -2.0230650000 	    0.6806210000
C   	   -0.9154210000 	   -1.3410860000 	    0.8277270000
O   	    0.0265170000 	   -1.8407880000 	    1.4125190000
N   	    1.3734730000 	    0.1604000000 	    0.0258890000
N   	    2.5467560000 	    0.7075120000 	   -0.0669260000
C   	    3.6873930000 	   -0.1059900000 	   -0.2145170000
C   	    4.9005610000 	    0.5073940000 	   -0.5216120000
C   	    6.0451900000 	   -0.2687700000 	   -0.6636590000
C   	    5.9811760000 	   -1.6496290000 	   -0.5052670000
C   	    4.7625080000 	   -2.2499300000 	   -0.1944180000
C   	    3.6113400000 	   -1.4882130000 	   -0.0409420000
O   	    1.3192480000 	    2.9613610000 	    0.3291360000
H   	   -0.8384470000 	    4.5194700000 	   -0.6540330000
H   	   -2.4262300000 	    4.4374470000 	    0.1342080000
H   	   -1.9344340000 	    3.1577000000 	   -0.9955600000
H   	   -1.6981960000 	    2.3728100000 	    1.3718810000
H   	   -0.6244920000 	    3.7461880000 	    1.7181550000
H   	   -4.2554760000 	    1.4049900000 	   -1.3047760000
H   	   -6.3948880000 	    0.1180080000 	   -1.4633910000
H   	   -6.4876650000 	   -2.2104610000 	   -0.6005930000
H   	   -4.4834000000 	   -3.2526590000 	    0.4117860000
H   	   -2.1126160000 	   -2.9514780000 	    1.0842140000
H   	    2.6179530000 	    1.7236960000 	    0.0021550000
H   	    4.9450270000 	    1.5864920000 	   -0.6532900000
H   	    6.9903970000 	    0.2115930000 	   -0.9026400000
H   	    6.8766830000 	   -2.2545500000 	   -0.6179200000
H   	    4.7069950000 	   -3.3269530000 	   -0.0582230000
H   	    2.6588490000 	   -1.9368750000 	    0.2249190000
