43
tauto -991.970296236
O   	    4.2461730000 	    1.3127340000 	   -0.0213360000
C   	    3.1607670000 	    0.7487530000 	   -0.0211980000
N   	    1.9696110000 	    1.5069230000 	   -0.0337060000
C   	    2.1634380000 	    2.9660900000 	   -0.0150260000
C   	    0.9409870000 	    3.6904010000 	    0.5142590000
C   	   -0.2844170000 	    3.2546160000 	   -0.2770980000
C   	   -0.4691720000 	    1.7617240000 	   -0.1591020000
N   	   -1.6943770000 	    1.3443650000 	   -0.1275870000
N   	   -2.0258210000 	    0.0696680000 	   -0.0516460000
C   	   -3.3714940000 	   -0.3087860000 	   -0.0026400000
C   	   -4.4065380000 	    0.6282620000 	   -0.0342720000
C   	   -5.7248150000 	    0.1930640000 	    0.0171530000
C   	   -6.0298040000 	   -1.1633170000 	    0.1005310000
C   	   -4.9928730000 	   -2.0911540000 	    0.1315410000
C   	   -3.6695590000 	   -1.6714180000 	    0.0803810000
C   	    0.7350810000 	    0.9056650000 	   -0.0902850000
N   	    0.5963870000 	   -0.3963460000 	   -0.0866120000
C   	    1.7156200000 	   -1.1915960000 	   -0.0407160000
C   	    2.9766090000 	   -0.6882200000 	    0.0010670000
C   	    4.2163420000 	   -1.5406510000 	    0.0524230000
C   	    3.8983070000 	   -2.9908940000 	    0.4171000000
C   	    2.6932320000 	   -3.4950130000 	   -0.3773060000
C   	    1.4469990000 	   -2.6755000000 	   -0.0411720000
H   	    2.3986530000 	    3.2944500000 	   -1.0350140000
H   	    3.0529630000 	    3.1496610000 	    0.5890170000
H   	    1.1074880000 	    4.7689160000 	    0.4250700000
H   	    0.8028810000 	    3.4658520000 	    1.5793590000
H   	   -0.1483710000 	    3.5373790000 	   -1.3315480000
H   	   -1.1981250000 	    3.7422490000 	    0.0721140000
H   	   -1.2767860000 	   -0.6225630000 	   -0.0408070000
H   	   -4.1638160000 	    1.6830650000 	   -0.0999070000
H   	   -6.5253050000 	    0.9284650000 	   -0.0081530000
H   	   -7.0640860000 	   -1.4932900000 	    0.1414900000
H   	   -5.2120540000 	   -3.1539590000 	    0.1974070000
H   	   -2.8604750000 	   -2.3989680000 	    0.1052860000
H   	    4.9215490000 	   -1.0955010000 	    0.7631270000
H   	    4.7190940000 	   -1.4952350000 	   -0.9239650000
H   	    3.6766110000 	   -3.0606870000 	    1.4910270000
H   	    4.7743630000 	   -3.6224700000 	    0.2325460000
H   	    2.5068770000 	   -4.5555350000 	   -0.1746790000
H   	    2.9069950000 	   -3.4082980000 	   -1.4512960000
H   	    1.0646490000 	   -2.9522640000 	    0.9518020000
H   	    0.6346550000 	   -2.8775590000 	   -0.7491700000
