17
tauto -384.775155204
O   	   -3.2698010000 	    0.6105450000 	   -0.3764260000
C   	   -2.3764570000 	   -0.1934030000 	   -0.4851280000
C   	   -1.4857210000 	   -0.6353460000 	    0.6573510000
C   	   -0.0428410000 	   -0.2938450000 	    0.3520770000
C   	    0.8870540000 	   -1.2817520000 	    0.0308600000
C   	    2.2030630000 	   -0.9446000000 	   -0.2752210000
C   	    2.6013150000 	    0.3879800000 	   -0.2666710000
C   	    1.6778130000 	    1.3822180000 	    0.0473600000
C   	    0.3646420000 	    1.0428130000 	    0.3517160000
H   	   -2.1349840000 	   -0.6516440000 	   -1.4684420000
H   	   -1.5961610000 	   -1.7202480000 	    0.7825850000
H   	   -1.8361880000 	   -0.1426140000 	    1.5695110000
H   	    0.5816430000 	   -2.3265220000 	    0.0270960000
H   	    2.9180950000 	   -1.7261190000 	   -0.5193480000
H   	    3.6288590000 	    0.6518700000 	   -0.5029530000
H   	    1.9814970000 	    2.4259330000 	    0.0550720000
H   	   -0.3575720000 	    1.8205970000 	    0.5938250000
