36
tauto -1186.79806882
C   	    1.5953580000 	    4.1887320000 	    0.0055370000
O   	    1.4735390000 	    2.7675040000 	    0.0659200000
C   	    0.2441920000 	    2.2757700000 	   -0.0100260000
C   	    0.2182710000 	    0.8015760000 	    0.0789880000
N   	    1.4961980000 	    0.2336700000 	    0.1474590000
N   	    1.6380750000 	   -0.8647130000 	   -0.4312790000
C   	    2.9564440000 	   -1.3191970000 	   -0.3186810000
N   	    3.2317460000 	   -2.6102380000 	   -0.5778410000
H   	    2.5521410000 	   -3.3301020000 	   -0.7739880000
N   	    4.5329560000 	   -2.9129260000 	   -0.4789570000
C   	    5.1165530000 	   -1.7669470000 	   -0.1685850000
C   	    4.1791250000 	   -0.7137940000 	   -0.0485500000
C   	    4.4371820000 	    0.6606340000 	    0.2241850000
N   	    4.6905070000 	    1.7730440000 	    0.4267220000
C   	   -0.9837730000 	    0.1209650000 	    0.1322220000
N   	   -2.1587990000 	    0.7748210000 	   -0.0569790000
C   	   -3.4199220000 	    0.1917490000 	   -0.0958090000
C   	   -4.5639710000 	    0.9460560000 	   -0.3558480000
C   	   -5.8009330000 	    0.3214430000 	   -0.4156160000
C   	   -5.9028480000 	   -1.0560210000 	   -0.2173210000
C   	   -4.7668110000 	   -1.8095910000 	    0.0442870000
C   	   -3.5242060000 	   -1.1842240000 	    0.1060570000
N   	   -2.3478710000 	   -1.8790710000 	    0.3912960000
C   	   -1.1059590000 	   -1.3239000000 	    0.5866480000
O   	   -0.2220180000 	   -1.9536580000 	    1.1263020000
O   	   -0.7476740000 	    2.9857920000 	   -0.1540100000
H   	    1.1903110000 	    4.5676610000 	   -0.9362630000
H   	    2.6655870000 	    4.3796710000 	    0.0765610000
H   	    1.0617410000 	    4.6532930000 	    0.8386820000
H   	    6.1894530000 	   -1.7157400000 	   -0.0387820000
H   	   -2.0585250000 	    1.7796390000 	   -0.2282550000
H   	   -4.4709840000 	    2.0179760000 	   -0.5115380000
H   	   -6.6902280000 	    0.9100730000 	   -0.6198620000
H   	   -6.8712830000 	   -1.5446620000 	   -0.2659780000
H   	   -4.8360570000 	   -2.8831850000 	    0.2032280000
H   	   -2.4148410000 	   -2.8333430000 	    0.7226180000
