38
tauto -935.133912535
N   	   -4.5545710000 	    0.2287090000 	    0.3876550000
C   	   -3.1919390000 	    0.1194870000 	    0.1724910000
C   	   -2.4101970000 	    1.2870740000 	   -0.0116180000
C   	   -3.0369320000 	    2.5684570000 	   -0.1129210000
C   	   -2.3092730000 	    3.7066780000 	   -0.2856650000
C   	   -0.8964340000 	    3.6220980000 	   -0.3731710000
C   	   -0.2598840000 	    2.4185160000 	   -0.2905530000
C   	   -0.9836470000 	    1.1946830000 	   -0.1072160000
C   	   -2.5907470000 	   -1.1555270000 	    0.0819600000
C   	   -3.3701900000 	   -2.3570620000 	    0.1081240000
C   	   -2.7836590000 	   -3.5832930000 	    0.0427710000
C   	   -1.3675850000 	   -3.6823800000 	   -0.0489010000
C   	   -0.5939330000 	   -2.5625320000 	   -0.0859510000
C   	   -1.1725460000 	   -1.2512050000 	   -0.0359110000
C   	   -0.3679220000 	   -0.0847040000 	   -0.0683640000
N   	    1.0092770000 	   -0.3588330000 	   -0.1138630000
N   	    1.8085330000 	    0.5392950000 	    0.2291380000
C   	    3.1799100000 	    0.1622450000 	    0.1198410000
C   	    3.6382890000 	   -0.9500790000 	   -0.5911000000
C   	    4.9995200000 	   -1.2178550000 	   -0.6416390000
C   	    5.9080320000 	   -0.3840350000 	    0.0103270000
C   	    5.4503800000 	    0.7277590000 	    0.7113070000
C   	    4.0885340000 	    1.0040950000 	    0.7594200000
H   	   -4.8575790000 	    1.0932290000 	    0.8094880000
H   	   -4.9847360000 	   -0.5649360000 	    0.8372240000
H   	   -4.1211950000 	    2.6382950000 	   -0.1133960000
H   	   -2.8061810000 	    4.6683770000 	   -0.3795200000
H   	   -0.3132720000 	    4.5269210000 	   -0.5248400000
H   	    0.8172230000 	    2.3733640000 	   -0.3592550000
H   	   -4.4550910000 	   -2.2978030000 	    0.1317250000
H   	   -3.3918800000 	   -4.4837250000 	    0.0474610000
H   	   -0.9010720000 	   -4.6628510000 	   -0.1008470000
H   	    0.4837320000 	   -2.6388430000 	   -0.1641810000
H   	    2.9191640000 	   -1.5827950000 	   -1.1018020000
H   	    5.3584390000 	   -2.0801730000 	   -1.1980900000
H   	    6.9727200000 	   -0.5984090000 	   -0.0364820000
H   	    6.1546950000 	    1.3828620000 	    1.2174840000
H   	    3.7037000000 	    1.8677500000 	    1.2951470000
