18
tauto -456.086338314
C   	    3.6216710000 	   -0.4082020000 	    0.0807120000
N   	    2.5865430000 	    0.5859280000 	   -0.0782510000
C   	    1.2509260000 	    0.2875140000 	   -0.0389130000
C   	    0.7899140000 	   -1.0416730000 	   -0.0404750000
C   	   -0.5717210000 	   -1.2972530000 	   -0.0255150000
C   	    0.3059770000 	    1.3415810000 	   -0.0148460000
C   	   -1.0426430000 	    1.0751040000 	    0.0031210000
C   	   -1.4921370000 	   -0.2528020000 	   -0.0028730000
N   	   -2.8673350000 	   -0.6249840000 	    0.0150280000
O   	   -3.6496060000 	    0.3058000000 	    0.0364960000
H   	    4.5930090000 	    0.0898120000 	    0.0544620000
H   	    3.5955200000 	   -1.1333660000 	   -0.7408420000
H   	    3.5358550000 	   -0.9569800000 	    1.0296570000
H   	    2.8360580000 	    1.5425250000 	    0.1144580000
H   	    1.4955630000 	   -1.8659070000 	   -0.0540000000
H   	   -0.9485950000 	   -2.3170450000 	   -0.0274300000
H   	    0.6626370000 	    2.3699550000 	   -0.0151390000
H   	   -1.7795740000 	    1.8723820000 	    0.0221610000
