29
tauto -667.244211783
C   	    5.9331850000 	   -0.5330470000 	    0.1567640000
N   	    4.9649070000 	    0.5083480000 	   -0.0973820000
C   	    3.6072220000 	    0.2656960000 	   -0.0532860000
C   	    3.0827840000 	   -1.0347830000 	   -0.0428030000
C   	    1.7076370000 	   -1.2278670000 	   -0.0345500000
C   	    2.7102010000 	    1.3552810000 	   -0.0464920000
C   	    1.3472000000 	    1.1531500000 	   -0.0333220000
C   	    0.8281830000 	   -0.1495260000 	   -0.0281490000
N   	   -0.5517830000 	   -0.4689160000 	   -0.0163020000
N   	   -1.3176290000 	    0.5153730000 	   -0.0024730000
C   	   -2.7046330000 	    0.1780180000 	    0.0061100000
C   	   -3.2001760000 	   -1.1286230000 	   -0.0166520000
C   	   -4.5713720000 	   -1.3404970000 	   -0.0071910000
C   	   -5.4531290000 	   -0.2592360000 	    0.0248540000
C   	   -4.9578430000 	    1.0406380000 	    0.0472840000
C   	   -3.5840340000 	    1.2580170000 	    0.0373610000
H   	    6.9325760000 	   -0.0922690000 	    0.1471000000
H   	    5.8983440000 	   -1.2923080000 	   -0.6326330000
H   	    5.7799230000 	   -1.0354910000 	    1.1241160000
H   	    5.2387400000 	    1.4374790000 	    0.1819610000
H   	    3.7453610000 	   -1.8945400000 	   -0.0430730000
H   	    1.2901100000 	   -2.2313210000 	   -0.0279770000
H   	    3.1097490000 	    2.3679570000 	   -0.0587060000
H   	    0.6574870000 	    1.9913450000 	   -0.0276370000
H   	   -2.4974500000 	   -1.9552140000 	   -0.0415070000
H   	   -4.9601590000 	   -2.3556990000 	   -0.0255050000
H   	   -6.5261540000 	   -0.4336140000 	    0.0319490000
H   	   -5.6413220000 	    1.8854290000 	    0.0717090000
H   	   -3.1670270000 	    2.2612820000 	    0.0537400000
