20
tauto -424.092202285
C   	   -2.4395190000 	   -0.9477390000 	   -1.0683010000
C   	   -2.1583100000 	    0.0851930000 	   -0.0010310000
C   	   -1.1522790000 	   -0.3081250000 	    1.0749060000
C   	    0.2583270000 	   -0.1339360000 	    0.5463120000
C   	    0.7069990000 	    1.1375010000 	    0.1786890000
C   	    1.9917860000 	    1.3156720000 	   -0.3206840000
C   	    2.8453630000 	    0.2238370000 	   -0.4631050000
C   	    2.4047950000 	   -1.0455000000 	   -0.1046060000
C   	    1.1169240000 	   -1.2221710000 	    0.3956190000
O   	   -2.6682660000 	    1.1847780000 	   -0.0084080000
H   	   -2.9774460000 	   -1.7966150000 	   -0.6293800000
H   	   -1.4998630000 	   -1.3344360000 	   -1.4789520000
H   	   -3.0437070000 	   -0.5075970000 	   -1.8633760000
H   	   -1.3100380000 	   -1.3493760000 	    1.3793590000
H   	   -1.3223730000 	    0.3407080000 	    1.9394570000
H   	    0.0341520000 	    1.9867610000 	    0.2813490000
H   	    2.3285550000 	    2.3107180000 	   -0.6005210000
H   	    3.8500890000 	    0.3634130000 	   -0.8536210000
H   	    3.0644570000 	   -1.9029330000 	   -0.2123430000
H   	    0.7777730000 	   -2.2172510000 	    0.6785100000
