16
tauto -325.82904696
C   	    2.5115680000 	   -0.8395330000 	    0.0002060000
C   	    1.2544730000 	   -0.0040980000 	   -0.0001140000
C   	   -0.0093120000 	   -0.7184420000 	   -0.0004200000
C   	   -1.2070770000 	   -0.0723320000 	   -0.0002970000
C   	   -2.5272760000 	   -0.7786300000 	    0.0002340000
O   	   -1.3249420000 	    1.2491550000 	    0.0000170000
N   	    1.2559160000 	    1.2869530000 	    0.0000230000
H   	    2.5342710000 	   -1.4895240000 	   -0.8814170000
H   	    2.5352260000 	   -1.4875720000 	    0.8832520000
H   	    3.4096980000 	   -0.2147090000 	   -0.0009440000
H   	    0.0009030000 	   -1.8032440000 	   -0.0006080000
H   	   -2.4016560000 	   -1.8635990000 	   -0.0037410000
H   	   -3.1063160000 	   -0.4792220000 	   -0.8795360000
H   	   -3.1023620000 	   -0.4854240000 	    0.8847260000
H   	   -0.3918180000 	    1.6224470000 	    0.0000900000
H   	    2.1959210000 	    1.6771440000 	    0.0002300000
