27
tauto -615.780324426
O   	    0.7012020000 	    2.5478260000 	    0.0243060000
C   	    0.5878980000 	    1.4229990000 	    0.4742690000
C   	   -0.6165570000 	    1.0679800000 	    1.3368870000
C   	   -1.6945610000 	    0.3535660000 	    0.5425990000
C   	   -2.1525950000 	    0.8923640000 	   -0.6621640000
C   	   -3.1538410000 	    0.2534360000 	   -1.3851170000
C   	   -3.7115430000 	   -0.9327460000 	   -0.9143230000
C   	   -3.2617890000 	   -1.4753210000 	    0.2846140000
C   	   -2.2584550000 	   -0.8347290000 	    1.0064900000
C   	    1.6146080000 	    0.3729110000 	    0.1744100000
C   	    1.4419940000 	   -0.9711820000 	    0.5129500000
C   	    2.4283790000 	   -1.9022460000 	    0.2048590000
C   	    3.5951650000 	   -1.4943880000 	   -0.4346390000
C   	    3.7735870000 	   -0.1547450000 	   -0.7748880000
C   	    2.7850630000 	    0.7726160000 	   -0.4765250000
H   	   -1.0036720000 	    2.0164390000 	    1.7225570000
H   	   -0.3107910000 	    0.4548930000 	    2.1917100000
H   	   -1.7172170000 	    1.8192290000 	   -1.0303600000
H   	   -3.5009710000 	    0.6848810000 	   -2.3206030000
H   	   -4.4944390000 	   -1.4309450000 	   -1.4802710000
H   	   -3.6924840000 	   -2.3994480000 	    0.6619120000
H   	   -1.9140840000 	   -1.2611810000 	    1.9476740000
H   	    0.5279000000 	   -1.3036340000 	    0.9971840000
H   	    2.2838960000 	   -2.9482640000 	    0.4617330000
H   	    4.3667620000 	   -2.2227680000 	   -0.6713500000
H   	    4.6843560000 	    0.1637770000 	   -1.2751460000
H   	    2.8970090000 	    1.8213170000 	   -0.7360280000
