17
tauto -363.932362927
N   	   -2.1985170000 	   -1.1393810000 	   -0.4125260000
C   	   -1.2550460000 	   -0.4479020000 	    0.0832980000
C   	   -1.2511840000 	    1.0512000000 	    0.2926960000
C   	   -0.0181500000 	    1.6844670000 	   -0.3656310000
C   	    1.2801470000 	    1.0674790000 	    0.1668400000
C   	    0.0172150000 	   -1.1530420000 	    0.5029290000
C   	    1.2841650000 	   -0.4462830000 	    0.0368750000
O   	    2.2393510000 	   -1.0607740000 	   -0.3799590000
H   	   -2.9931830000 	   -0.5361640000 	   -0.6423710000
H   	   -1.2292750000 	    1.2583480000 	    1.3729570000
H   	   -2.1737050000 	    1.4884250000 	   -0.1053760000
H   	   -0.0145610000 	    2.7653250000 	   -0.1898420000
H   	   -0.0740800000 	    1.5394780000 	   -1.4521040000
H   	    1.3833870000 	    1.3062520000 	    1.2361630000
H   	    2.1630890000 	    1.4570350000 	   -0.3465300000
H   	    0.0152050000 	   -2.1852360000 	    0.1485510000
H   	    0.0550590000 	   -1.1671170000 	    1.6038660000
