34
tauto -931.964789612
N   	   -6.0497910000 	   -1.4617210000 	   -0.0542850000
C   	   -4.7512580000 	   -0.9541860000 	   -0.0023340000
C   	   -3.6452540000 	   -1.8112920000 	    0.0001560000
C   	   -2.3565320000 	   -1.2969890000 	   -0.0017380000
C   	   -4.5323180000 	    0.4280280000 	   -0.0077340000
C   	   -3.2408010000 	    0.9365080000 	   -0.0100220000
O   	   -2.9665430000 	    2.2704490000 	   -0.0134220000
C   	   -2.1368720000 	    0.0752940000 	   -0.0057000000
N   	   -0.8562060000 	    0.6561560000 	   -0.0047630000
N   	    0.2037670000 	   -0.0891510000 	   -0.0040950000
C   	    1.4080890000 	    0.4487930000 	   -0.0010040000
C   	    2.5465560000 	   -0.4797180000 	   -0.0016030000
C   	    2.3762600000 	   -1.8725130000 	   -0.0096470000
C   	    3.4710680000 	   -2.7183880000 	   -0.0097700000
C   	    4.7713070000 	   -2.2008390000 	   -0.0018680000
C   	    4.9547460000 	   -0.8311960000 	    0.0057180000
C   	    3.8552070000 	    0.0406160000 	    0.0057720000
C   	    4.0508510000 	    1.4801630000 	    0.0128370000
C   	    3.0279060000 	    2.3533150000 	    0.0120930000
C   	    1.6364560000 	    1.8994740000 	    0.0045740000
O   	    0.7016180000 	    2.7176690000 	    0.0040400000
H   	   -6.1433740000 	   -2.4051970000 	    0.2950360000
H   	   -6.7583550000 	   -0.8549180000 	    0.3338050000
H   	   -3.7979430000 	   -2.8877300000 	   -0.0024990000
H   	   -1.4975470000 	   -1.9600000000 	    0.0017150000
H   	   -5.3790710000 	    1.1134060000 	   -0.0196510000
H   	   -3.7909170000 	    2.7713500000 	   -0.0374830000
H   	   -0.7389600000 	    1.6764800000 	   -0.0045220000
H   	    1.3689470000 	   -2.2766710000 	   -0.0163990000
H   	    3.3170340000 	   -3.7946750000 	   -0.0164980000
H   	    5.6275270000 	   -2.8699340000 	   -0.0020620000
H   	    5.9586410000 	   -0.4106500000 	    0.0116290000
H   	    5.0769400000 	    1.8456150000 	    0.0185810000
H   	    3.1796130000 	    3.4285740000 	    0.0170290000
