23
tauto -571.641824098
C   	   -3.7150680000 	   -1.4926650000 	    0.2252170000
C   	   -2.5545070000 	   -0.5583590000 	    0.0929620000
C   	   -2.5841720000 	    0.8416810000 	   -0.1262960000
C   	   -1.2584070000 	    1.1987690000 	   -0.1605930000
O   	   -0.6492670000 	    2.3876580000 	   -0.3580450000
N   	   -1.3196010000 	   -1.0118760000 	    0.1864050000
N   	   -0.5158890000 	    0.0789350000 	    0.0351290000
C   	    0.8957690000 	   -0.0832930000 	    0.0310470000
C   	    1.7431700000 	    0.9524290000 	    0.4212290000
C   	    3.1196730000 	    0.7503820000 	    0.4031370000
C   	    3.6522470000 	   -0.4749630000 	    0.0178750000
C   	    2.7952140000 	   -1.5075260000 	   -0.3539910000
C   	    1.4196870000 	   -1.3170610000 	   -0.3541070000
H   	   -4.3314300000 	   -1.4891190000 	   -0.6804520000
H   	   -4.3580450000 	   -1.2094400000 	    1.0655810000
H   	   -3.3492670000 	   -2.5083600000 	    0.3939980000
H   	   -3.4448320000 	    1.4872250000 	   -0.2390020000
H   	   -1.3317720000 	    3.0367480000 	   -0.5692840000
H   	    1.3327170000 	    1.9043860000 	    0.7366610000
H   	    3.7784140000 	    1.5604570000 	    0.7054120000
H   	    4.7282930000 	   -0.6267610000 	    0.0110450000
H   	    3.1996310000 	   -2.4711220000 	   -0.6529950000
H   	    0.7372250000 	   -2.1110660000 	   -0.6362240000
