17
tauto -363.917938392
N   	    2.3014830000 	   -1.2720210000 	   -0.0981250000
C   	    1.2800490000 	   -0.5132580000 	    0.0242180000
C   	    1.3265570000 	    0.9814010000 	    0.2889510000
C   	    0.1466750000 	    1.7110150000 	   -0.3549290000
C   	   -1.1806630000 	    1.1257370000 	    0.1251340000
C   	   -0.0567600000 	   -1.1103940000 	   -0.0456940000
C   	   -1.1760050000 	   -0.3714880000 	    0.0219440000
O   	   -2.4286740000 	   -0.8874060000 	    0.0089370000
H   	    3.1576810000 	   -0.7165370000 	   -0.0240840000
H   	    2.2804590000 	    1.3862500000 	   -0.0680480000
H   	    1.2984230000 	    1.1349360000 	    1.3777100000
H   	    0.2110130000 	    1.6089270000 	   -1.4453740000
H   	    0.1908680000 	    2.7816760000 	   -0.1282690000
H   	   -2.0223250000 	    1.5105280000 	   -0.4609950000
H   	   -1.3738780000 	    1.4058290000 	    1.1701880000
H   	   -0.0954050000 	   -2.1935360000 	   -0.1466110000
H   	   -2.3669380000 	   -1.8527560000 	   -0.0168880000
