10
tauto -305.18459465
O   	   -2.0137760000 	   -0.0269080000 	   -0.0005520000
C   	   -0.8191580000 	    0.0093750000 	   -0.0000490000
O   	   -0.0509220000 	   -1.1343220000 	    0.0005480000
C   	    1.2793310000 	   -0.7545560000 	   -0.0001710000
C   	    1.4688190000 	    0.5594660000 	   -0.0005220000
C   	    0.1183910000 	    1.2103580000 	    0.0004440000
H   	    1.9766650000 	   -1.5815260000 	   -0.0002980000
H   	    2.4241070000 	    1.0661960000 	   -0.0014250000
H   	   -0.0843250000 	    1.8302550000 	   -0.8801050000
H   	   -0.0831630000 	    1.8270600000 	    0.8836470000
