26
tauto -631.814801867
O   	    0.6633460000 	    2.5385710000 	    0.0317800000
C   	    0.5715520000 	    1.4127300000 	    0.4826220000
C   	   -0.6306560000 	    1.0400130000 	    1.3443240000
C   	   -1.7023210000 	    0.3342910000 	    0.5392270000
C   	   -2.1544170000 	    0.8625660000 	   -0.6697410000
C   	   -3.1520320000 	    0.1901590000 	   -1.3656930000
N   	   -3.7179970000 	   -0.9457490000 	   -0.9509260000
C   	   -3.2806100000 	   -1.4432070000 	    0.2055570000
C   	   -2.2869730000 	   -0.8508660000 	    0.9789390000
C   	    1.6111820000 	    0.3773560000 	    0.1849570000
C   	    2.7699390000 	    0.7895660000 	   -0.4794560000
C   	    3.7679650000 	   -0.1261480000 	   -0.7813680000
C   	    3.6109860000 	   -1.4659490000 	   -0.4310910000
C   	    2.4562750000 	   -1.8862220000 	    0.2221280000
C   	    1.4602650000 	   -0.9668400000 	    0.5337660000
H   	   -1.0286890000 	    1.9816790000 	    1.7350220000
H   	   -0.3269510000 	    0.4199460000 	    2.1941910000
H   	   -1.7330590000 	    1.7849530000 	   -1.0617880000
H   	   -3.5187570000 	    0.5873200000 	   -2.3110160000
H   	   -3.7499120000 	   -2.3688720000 	    0.5360560000
H   	   -1.9810700000 	   -1.3095190000 	    1.9169160000
H   	    2.8651360000 	    1.8378190000 	   -0.7472120000
H   	    4.6693410000 	    0.2014350000 	   -1.2924520000
H   	    4.3900720000 	   -2.1851800000 	   -0.6708470000
H   	    2.3290020000 	   -2.9323350000 	    0.4871030000
H   	    0.5571710000 	   -1.3102660000 	    1.0312430000
