26
tauto -631.792545168
O   	   -0.1993890000 	    1.7642450000 	   -0.3516090000
C   	   -0.4819920000 	    0.4536690000 	   -0.0976510000
C   	   -1.9250800000 	    0.1090520000 	   -0.0383570000
C   	   -2.3996380000 	   -1.1140930000 	   -0.5216510000
C   	   -3.7540840000 	   -1.4177040000 	   -0.4586320000
C   	   -4.6544760000 	   -0.5006090000 	    0.0782300000
C   	   -4.1925120000 	    0.7221390000 	    0.5550020000
C   	   -2.8368900000 	    1.0264740000 	    0.4956420000
C   	    0.4937530000 	   -0.4407750000 	    0.1333350000
C   	    1.9473540000 	   -0.2520720000 	    0.0840650000
C   	    2.5977720000 	    0.9543350000 	   -0.2076010000
C   	    3.9870170000 	    0.9842510000 	   -0.2276370000
N   	    4.7736910000 	   -0.0655900000 	    0.0176230000
C   	    4.1509810000 	   -1.2125350000 	    0.2983090000
C   	    2.7719300000 	   -1.3551940000 	    0.3430490000
H   	   -0.9798670000 	    2.1756770000 	   -0.7463440000
H   	   -1.7012990000 	   -1.8177400000 	   -0.9672220000
H   	   -4.1109810000 	   -2.3696810000 	   -0.8428400000
H   	   -5.7140170000 	   -0.7380590000 	    0.1230170000
H   	   -4.8881280000 	    1.4394100000 	    0.9826180000
H   	   -2.4777120000 	    1.9703810000 	    0.9010200000
H   	    0.1633460000 	   -1.4381740000 	    0.4112920000
H   	    2.0333410000 	    1.8549760000 	   -0.4131320000
H   	    4.5003880000 	    1.9182260000 	   -0.4540760000
H   	    4.7941860000 	   -2.0684290000 	    0.5000340000
H   	    2.3352080000 	   -2.3230390000 	    0.5785270000
