32
tauto -785.424379529
O   	   -2.3708010000 	   -2.4910870000 	   -0.1032200000
C   	   -1.9985720000 	   -1.4564750000 	    0.4182650000
C   	   -0.8336840000 	   -1.4820120000 	    1.4031250000
C   	    0.4673700000 	   -1.1303430000 	    0.7119190000
N   	    1.0733600000 	   -0.0283150000 	    1.0809810000
C   	    2.2494260000 	    0.3004050000 	    0.4668900000
C   	    2.9087040000 	    1.4905220000 	    0.8698210000
C   	    4.0905810000 	    1.8594040000 	    0.2839580000
C   	    4.6712770000 	    1.0595530000 	   -0.7311710000
C   	    4.0541710000 	   -0.0936960000 	   -1.1377050000
C   	    2.8292850000 	   -0.4990170000 	   -0.5478020000
C   	    2.1358370000 	   -1.6791890000 	   -0.9253630000
C   	    0.9632100000 	   -1.9958430000 	   -0.3041450000
C   	   -2.6474140000 	   -0.1481920000 	    0.0920350000
C   	   -2.1302540000 	    1.0751660000 	    0.5276990000
C   	   -2.7754680000 	    2.2602540000 	    0.1877660000
C   	   -3.9374390000 	    2.2293220000 	   -0.5772230000
C   	   -4.4542200000 	    1.0112880000 	   -1.0164240000
C   	   -3.8080790000 	   -0.1715860000 	   -0.6870510000
H   	   -0.7821250000 	   -2.5039080000 	    1.7910050000
H   	   -0.9875210000 	   -0.7903010000 	    2.2342910000
H   	    2.4436870000 	    2.0849290000 	    1.6510250000
H   	    4.5912550000 	    2.7719030000 	    0.5971930000
H   	    5.6092670000 	    1.3667120000 	   -1.1858620000
H   	    4.4923850000 	   -0.7140150000 	   -1.9169290000
H   	    2.5473840000 	   -2.3158750000 	   -1.7060970000
H   	    0.3946360000 	   -2.8835570000 	   -0.5678750000
H   	   -1.2098130000 	    1.1115400000 	    1.1059800000
H   	   -2.3674780000 	    3.2106450000 	    0.5214450000
H   	   -4.4416330000 	    3.1574860000 	   -0.8351250000
H   	   -5.3603260000 	    0.9877600000 	   -1.6162380000
H   	   -4.1852170000 	   -1.1337980000 	   -1.0214810000
