26
tauto -631.819588123
O   	    0.5769540000 	    2.5439120000 	   -0.0492940000
C   	    0.5231750000 	    1.4311720000 	    0.4401970000
C   	   -0.6540910000 	    1.0542790000 	    1.3337010000
C   	   -1.7139440000 	    0.3101170000 	    0.5472950000
N   	   -1.9351640000 	   -0.9648660000 	    0.8779120000
C   	   -2.8660530000 	   -1.6326450000 	    0.1915630000
C   	   -3.6082950000 	   -1.0782080000 	   -0.8434160000
C   	   -3.3642540000 	    0.2474720000 	   -1.1884400000
C   	   -2.4011090000 	    0.9546770000 	   -0.4835480000
C   	    1.5814850000 	    0.4105820000 	    0.1593030000
C   	    1.4623000000 	   -0.9239330000 	    0.5571250000
C   	    2.4773950000 	   -1.8286650000 	    0.2610920000
C   	    3.6134630000 	   -1.4058520000 	   -0.4221770000
C   	    3.7349130000 	   -0.0760320000 	   -0.8224040000
C   	    2.7202940000 	    0.8263730000 	   -0.5371270000
H   	   -1.0631410000 	    1.9943730000 	    1.7151480000
H   	   -0.3416710000 	    0.4335320000 	    2.1766480000
H   	   -3.0218710000 	   -2.6683860000 	    0.4892180000
H   	   -4.3526070000 	   -1.6722580000 	   -1.3650500000
H   	   -3.9158510000 	    0.7221170000 	   -1.9959550000
H   	   -2.1680030000 	    1.9898140000 	   -0.7189900000
H   	    0.5689670000 	   -1.2698150000 	    1.0722570000
H   	    2.3787450000 	   -2.8675440000 	    0.5645980000
H   	    4.4063370000 	   -2.1150950000 	   -0.6470000000
H   	    4.6214020000 	    0.2534160000 	   -1.3580550000
H   	    2.7865370000 	    1.8665850000 	   -0.8428320000
