32
tauto -785.418064113
O   	   -1.0850170000 	   -2.2373320000 	    1.1570740000
C   	   -1.1921020000 	   -1.0272470000 	    1.0926970000
C   	   -0.2229100000 	   -0.1391110000 	    1.8789630000
C   	    0.7861860000 	    0.6050180000 	    1.0281950000
C   	    0.7899810000 	    1.9748510000 	    0.9772440000
C   	    1.7457290000 	    2.6515360000 	    0.1817100000
N   	    2.6638950000 	    2.0534720000 	   -0.5308450000
C   	    2.7004710000 	    0.6885550000 	   -0.4828540000
C   	    3.7137420000 	    0.0373020000 	   -1.2337530000
C   	    3.8250900000 	   -1.3264460000 	   -1.2164130000
C   	    2.9269580000 	   -2.1032410000 	   -0.4462180000
C   	    1.9333510000 	   -1.5045540000 	    0.2829100000
C   	    1.7899020000 	   -0.0891670000 	    0.2810620000
C   	   -2.2715950000 	   -0.4066430000 	    0.2606330000
C   	   -3.0602620000 	   -1.2617600000 	   -0.5156570000
C   	   -4.0830070000 	   -0.7531220000 	   -1.3032760000
C   	   -4.3310550000 	    0.6181860000 	   -1.3200230000
C   	   -3.5543210000 	    1.4761360000 	   -0.5477280000
C   	   -2.5275540000 	    0.9661970000 	    0.2396180000
H   	    0.2916660000 	   -0.8054650000 	    2.5778710000
H   	   -0.7938080000 	    0.5840790000 	    2.4720550000
H   	    0.0710880000 	    2.5574870000 	    1.5492140000
H   	    1.7333690000 	    3.7409800000 	    0.1442680000
H   	    4.3877070000 	    0.6653000000 	   -1.8088680000
H   	    4.6056820000 	   -1.8187120000 	   -1.7907890000
H   	    3.0266270000 	   -3.1854150000 	   -0.4346380000
H   	    1.2440800000 	   -2.1147770000 	    0.8590460000
H   	   -2.8499960000 	   -2.3265640000 	   -0.4827710000
H   	   -4.6895020000 	   -1.4238170000 	   -1.9059740000
H   	   -5.1316610000 	    1.0184480000 	   -1.9369580000
H   	   -3.7465350000 	    2.5456040000 	   -0.5590300000
H   	   -1.9274600000 	    1.6482660000 	    0.8332380000
