32
tauto -785.394082733
O   	    1.4424170000 	   -2.0119840000 	    0.6467890000
C   	    1.4523890000 	   -0.7338130000 	    0.1700460000
C   	    2.7913990000 	   -0.1014160000 	    0.0585290000
C   	    3.8996150000 	   -0.8787240000 	   -0.2959620000
C   	    5.1608790000 	   -0.3029130000 	   -0.4049150000
C   	    5.3314800000 	    1.0552810000 	   -0.1566840000
C   	    4.2347390000 	    1.8350170000 	    0.2031090000
C   	    2.9747560000 	    1.2605810000 	    0.3155950000
C   	    0.3196150000 	   -0.1176560000 	   -0.2084490000
C   	   -1.0530630000 	   -0.6325100000 	   -0.1246220000
C   	   -1.3490600000 	   -1.9777220000 	   -0.1212740000
C   	   -2.6962060000 	   -2.4024980000 	   -0.0802820000
N   	   -3.7320430000 	   -1.6031180000 	   -0.0511050000
C   	   -3.4742940000 	   -0.2620110000 	   -0.0474700000
C   	   -4.5934880000 	    0.6115920000 	   -0.0092140000
C   	   -4.4228710000 	    1.9687340000 	    0.0145310000
C   	   -3.1181090000 	    2.5156090000 	    0.0084840000
C   	   -2.0216000000 	    1.6948990000 	   -0.0328780000
C   	   -2.1633180000 	    0.2810840000 	   -0.0739750000
H   	    2.2628070000 	   -2.1633550000 	    1.1353900000
H   	    3.7664320000 	   -1.9347930000 	   -0.5219020000
H   	    6.0104360000 	   -0.9163630000 	   -0.6933670000
H   	    6.3167140000 	    1.5060030000 	   -0.2409290000
H   	    4.3644610000 	    2.8941480000 	    0.4093880000
H   	    2.1250260000 	    1.8631400000 	    0.6263450000
H   	    0.4517470000 	    0.8646220000 	   -0.6489540000
H   	   -0.5602580000 	   -2.7183980000 	   -0.1658850000
H   	   -2.9118030000 	   -3.4714540000 	   -0.0821070000
H   	   -5.5778220000 	    0.1527600000 	    0.0042510000
H   	   -5.2847810000 	    2.6303980000 	    0.0451300000
H   	   -2.9856900000 	    3.5940090000 	    0.0430580000
H   	   -1.0294730000 	    2.1357980000 	   -0.0144030000
