14
tauto -378.752991655
O   	    2.4374210000 	   -0.0355030000 	   -0.2871370000
C   	    1.2701650000 	    0.0445150000 	    0.0331110000
N   	    0.5428030000 	    1.2039970000 	   -0.1531240000
C   	   -0.7952110000 	    1.4333490000 	    0.1660480000
C   	   -1.7964010000 	    0.5366450000 	    0.0887030000
N   	   -1.7165250000 	   -0.7504100000 	   -0.4340480000
C   	   -0.6772830000 	   -1.4596860000 	   -0.2305140000
C   	    0.4709990000 	   -1.0792760000 	    0.6687890000
H   	    1.1040720000 	    1.9895850000 	   -0.4537440000
H   	   -1.0192170000 	    2.4576640000 	    0.4498060000
H   	   -2.8000370000 	    0.8694830000 	    0.3365940000
H   	   -0.6186860000 	   -2.4189440000 	   -0.7478290000
H   	    1.1477280000 	   -1.9173280000 	    0.8374870000
H   	    0.0692180000 	   -0.7248210000 	    1.6281620000
