22
tauto -620.950158351
C   	   -3.1629100000 	    1.1676340000 	    0.1558020000
C   	   -2.2321370000 	    0.0113990000 	    0.0629260000
N   	   -0.8899140000 	    0.1303260000 	   -0.2003270000
N   	   -0.2117480000 	    1.3018740000 	   -0.4361770000
N   	   -2.5314370000 	   -1.2525950000 	    0.1759900000
N   	   -1.3878480000 	   -1.9936090000 	    0.0004410000
C   	   -0.4068020000 	   -1.1656410000 	   -0.2265400000
N   	    0.9211040000 	   -1.5117460000 	   -0.4232340000
C   	    1.8345540000 	   -0.8047870000 	    0.1235660000
C   	    3.2732930000 	   -1.1390320000 	   -0.1229190000
C   	    1.5541710000 	    0.4157070000 	    0.9948170000
C   	    1.0576780000 	    1.5169060000 	    0.0762860000
O   	    1.7095160000 	    2.4753590000 	   -0.2683440000
H   	   -2.7962900000 	    1.9173610000 	    0.8644760000
H   	   -4.1317070000 	    0.7963210000 	    0.4942550000
H   	   -3.3009730000 	    1.6572030000 	   -0.8149200000
H   	   -0.4338100000 	    1.7839820000 	   -1.2990240000
H   	    3.3511940000 	   -2.0013720000 	   -0.7865600000
H   	    3.7799000000 	   -1.3562990000 	    0.8247580000
H   	    3.7835170000 	   -0.2776840000 	   -0.5713560000
H   	    2.4615170000 	    0.7752040000 	    1.4812480000
H   	    0.8023500000 	    0.1695400000 	    1.7533900000
