21
tauto -603.756377603
C   	    2.7294690000 	   -1.9122630000 	   -0.3002030000
C   	    1.5002910000 	   -1.1403360000 	    0.0735380000
C   	    1.6947760000 	    0.0654460000 	    0.9710460000
N   	    0.3683550000 	   -1.4966090000 	   -0.3940060000
C   	   -0.7793060000 	   -0.7461080000 	   -0.1486800000
N   	   -1.8969070000 	   -1.4463220000 	    0.0752990000
C   	   -3.0271320000 	   -0.7709220000 	    0.2096050000
N   	   -3.1918330000 	    0.5518300000 	    0.1174410000
C   	   -2.0818470000 	    1.2465830000 	   -0.0910940000
C   	   -0.8233800000 	    0.6599060000 	   -0.2199060000
N   	    0.3045060000 	    1.4633720000 	   -0.4503000000
C   	    1.5484640000 	    1.3212800000 	    0.1256140000
O   	    2.4386540000 	    2.1224820000 	   -0.0610170000
H   	    3.1930980000 	   -2.3431970000 	    0.5950560000
H   	    3.4683730000 	   -1.2398740000 	   -0.7528800000
H   	    2.4762960000 	   -2.7097010000 	   -1.0002130000
H   	    2.6893040000 	    0.0827590000 	    1.4182200000
H   	    0.9391070000 	    0.0690630000 	    1.7660430000
H   	   -3.9230390000 	   -1.3571230000 	    0.4037700000
H   	   -2.1821220000 	    2.3308060000 	   -0.1615260000
H   	    0.1728920000 	    2.3399990000 	   -0.9388800000
