23
tauto -571.684128614
C   	    2.7716030000 	   -1.9229440000 	   -0.2633810000
C   	    1.5427580000 	   -1.1330200000 	    0.0795040000
C   	    1.7328460000 	    0.0829270000 	    0.9619090000
N   	    0.4141130000 	   -1.4923340000 	   -0.3926950000
C   	   -0.7472390000 	   -0.7383360000 	   -0.1572200000
C   	   -1.9364830000 	   -1.4563080000 	    0.0337770000
C   	   -3.1536490000 	   -0.8177460000 	    0.1891160000
C   	   -3.2141880000 	    0.5754440000 	    0.1248410000
C   	   -2.0539150000 	    1.3046210000 	   -0.0696170000
C   	   -0.8139970000 	    0.6673940000 	   -0.2018340000
N   	    0.3220640000 	    1.4670140000 	   -0.4418910000
C   	    1.5722990000 	    1.3307460000 	    0.1129200000
O   	    2.4593110000 	    2.1349140000 	   -0.0904970000
H   	    3.2368780000 	   -2.3227830000 	    0.6456520000
H   	    3.5128420000 	   -1.2729910000 	   -0.7443070000
H   	    2.5153090000 	   -2.7445440000 	   -0.9342610000
H   	    2.7272500000 	    0.1099810000 	    1.4092850000
H   	    0.9734190000 	    0.0836450000 	    1.7542050000
H   	   -1.8647490000 	   -2.5402530000 	    0.0394180000
H   	   -4.0582920000 	   -1.3995070000 	    0.3421110000
H   	   -4.1648680000 	    1.0908830000 	    0.2291990000
H   	   -2.0889810000 	    2.3913720000 	   -0.1111160000
H   	    0.1832680000 	    2.3454490000 	   -0.9241990000
