29
tauto -650.238295978
O   	    4.1435590000 	    1.8583570000 	   -0.4822850000
C   	    3.5913370000 	    0.8801950000 	   -0.0319750000
C   	    4.1526400000 	   -0.5216190000 	   -0.1873990000
C   	    3.0734460000 	   -1.5175670000 	   -0.6255040000
C   	    1.8583630000 	   -1.5054810000 	    0.3148150000
C   	    2.3001320000 	    0.9788660000 	    0.7677820000
C   	    1.3010950000 	   -0.1049560000 	    0.4338300000
N   	    0.0895340000 	    0.2666950000 	    0.2727600000
N   	   -0.8723170000 	   -0.6543920000 	    0.0011530000
C   	   -2.2097210000 	   -0.2334780000 	   -0.0232260000
C   	   -3.2173900000 	   -1.2009730000 	    0.0217940000
C   	   -4.5524000000 	   -0.8223010000 	   -0.0429590000
C   	   -4.9013590000 	    0.5206200000 	   -0.1514270000
C   	   -3.8929870000 	    1.4796010000 	   -0.1950580000
C   	   -2.5530030000 	    1.1158250000 	   -0.1338780000
H   	    4.5553840000 	   -0.8280160000 	    0.7898450000
H   	    4.9857250000 	   -0.4832250000 	   -0.8942560000
H   	    3.4969550000 	   -2.5267780000 	   -0.6680400000
H   	    2.7401540000 	   -1.2701080000 	   -1.6411400000
H   	    2.1629830000 	   -1.8637370000 	    1.3095860000
H   	    1.1120520000 	   -2.2090950000 	   -0.0664580000
H   	    1.8544120000 	    1.9654120000 	    0.6273110000
H   	    2.5860470000 	    0.8846290000 	    1.8283920000
H   	   -0.7252160000 	   -1.6025640000 	    0.3245330000
H   	   -2.9529520000 	   -2.2541490000 	    0.1053740000
H   	   -5.3247250000 	   -1.5866070000 	   -0.0059460000
H   	   -5.9456760000 	    0.8155770000 	   -0.2023670000
H   	   -4.1493830000 	    2.5329060000 	   -0.2804410000
H   	   -1.7656660000 	    1.8603940000 	   -0.1662720000
