23
tauto -442.536473404
C   	    3.0442740000 	    0.0735580000 	    1.1629280000
C   	    2.7536470000 	   -0.2892470000 	   -0.2912080000
N   	    1.4726750000 	   -0.9714620000 	   -0.3929250000
C   	    0.4033070000 	   -0.3237900000 	   -0.6134970000
C   	    0.2164020000 	    1.1726210000 	   -0.7826030000
C   	   -0.8030870000 	    1.6932120000 	    0.2418280000
C   	   -2.1518140000 	    0.9743170000 	    0.1229250000
C   	   -0.8905870000 	   -1.1130820000 	   -0.6891970000
C   	   -1.9942720000 	   -0.5348460000 	    0.1858100000
O   	   -2.7092410000 	   -1.2370030000 	    0.8643550000
H   	    4.0511270000 	    0.4904190000 	    1.2694750000
H   	    2.9649730000 	   -0.8146750000 	    1.7971660000
H   	    2.3248210000 	    0.8148740000 	    1.5311040000
H   	    3.5174250000 	   -0.9882060000 	   -0.6491380000
H   	    2.8226170000 	    0.6064030000 	   -0.9252120000
H   	   -0.1624770000 	    1.3673250000 	   -1.7967730000
H   	    1.1585710000 	    1.7159310000 	   -0.6795630000
H   	   -0.9460310000 	    2.7706310000 	    0.1067550000
H   	   -0.4007740000 	    1.5512620000 	    1.2536450000
H   	   -2.6065170000 	    1.2177230000 	   -0.8491180000
H   	   -2.8529840000 	    1.2803850000 	    0.9038370000
H   	   -0.7129680000 	   -2.1558710000 	   -0.4218260000
H   	   -1.2597990000 	   -1.0764050000 	   -1.7266370000
