22
tauto -587.717780004
C   	    2.7434980000 	   -1.9103410000 	   -0.2896180000
C   	    1.5120940000 	   -1.1352120000 	    0.0751120000
C   	    1.7036780000 	    0.0692060000 	    0.9751490000
N   	    0.3843310000 	   -1.4865660000 	   -0.4022950000
C   	   -0.7745700000 	   -0.7410080000 	   -0.1538300000
N   	   -1.8746200000 	   -1.4706740000 	    0.0601020000
C   	   -3.0391980000 	   -0.8541200000 	    0.2077250000
C   	   -3.1949920000 	    0.5278890000 	    0.1195660000
C   	   -2.0626620000 	    1.2928840000 	   -0.0945610000
C   	   -0.8210260000 	    0.6683890000 	   -0.2211550000
N   	    0.3203970000 	    1.4589010000 	   -0.4540880000
C   	    1.5608430000 	    1.3205460000 	    0.1271040000
O   	    2.4510210000 	    2.1236980000 	   -0.0603920000
H   	    3.2047900000 	   -2.3373480000 	    0.6088740000
H   	    3.4848660000 	   -1.2430130000 	   -0.7459010000
H   	    2.4903840000 	   -2.7115170000 	   -0.9855960000
H   	    2.6950180000 	    0.0861070000 	    1.4296070000
H   	    0.9404490000 	    0.0719940000 	    1.7631140000
H   	   -3.8994040000 	   -1.4969690000 	    0.3873320000
H   	   -4.1730700000 	    0.9866970000 	    0.2241850000
H   	   -2.1222690000 	    2.3778090000 	   -0.1542160000
H   	    0.1943280000 	    2.3356280000 	   -0.9432480000
