21
tauto -499.274216515
C   	   -2.4918960000 	   -1.0803950000 	    1.1805150000
O   	   -2.2551690000 	   -1.0863160000 	   -0.2104410000
C   	   -2.1354890000 	    0.2077930000 	   -0.7421020000
C   	   -0.9167800000 	    1.0174730000 	   -0.2814620000
C   	    0.4267140000 	    0.3703240000 	   -0.1479770000
C   	    0.6793840000 	   -0.9527910000 	   -0.5242830000
C   	    1.9638000000 	   -1.4749090000 	   -0.4058050000
C   	    2.9967610000 	   -0.6869050000 	    0.0924160000
C   	    2.7495670000 	    0.6317010000 	    0.4708670000
C   	    1.4716670000 	    1.1576240000 	    0.3472280000
O   	   -1.0620610000 	    2.2081690000 	   -0.0792690000
H   	   -2.6271780000 	   -2.1201800000 	    1.4854760000
H   	   -3.3998200000 	   -0.5096370000 	    1.4254130000
H   	   -1.6444820000 	   -0.6527740000 	    1.7364680000
H   	   -3.0173900000 	    0.8235940000 	   -0.5121220000
H   	   -2.0728180000 	    0.0907910000 	   -1.8310620000
H   	   -0.1289200000 	   -1.5761950000 	   -0.8919340000
H   	    2.1566680000 	   -2.5029850000 	   -0.7008390000
H   	    3.9976890000 	   -1.1008790000 	    0.1872030000
H   	    3.5561240000 	    1.2484930000 	    0.8585950000
H   	    1.2555880000 	    2.1854550000 	    0.6241060000
