16
tauto -454.984989434
O   	    3.2522130000 	    0.1035260000 	   -0.0005240000
C   	    2.0465480000 	    0.0161270000 	   -0.0000310000
C   	    1.1871620000 	   -1.2504220000 	    0.0003380000
N   	    1.1684800000 	    1.0907280000 	    0.0004090000
C   	   -0.1661290000 	    0.6853210000 	    0.0001630000
C   	   -0.2196110000 	   -0.7173690000 	    0.0000740000
N   	   -1.3365620000 	   -1.4176850000 	   -0.0001050000
C   	   -2.4778350000 	   -0.7091100000 	   -0.0001990000
C   	   -2.5240920000 	    0.6793610000 	   -0.0001390000
C   	   -1.3372270000 	    1.4174310000 	    0.0000640000
H   	    1.4159840000 	   -1.8562780000 	    0.8830000000
H   	    1.4162180000 	   -1.8572600000 	   -0.8815540000
H   	    1.4983740000 	    2.0438650000 	   -0.0005120000
H   	   -3.3980790000 	   -1.2889080000 	   -0.0003660000
H   	   -3.4841100000 	    1.1868970000 	   -0.0002440000
H   	   -1.3424210000 	    2.5041360000 	    0.0001250000
