32
tauto -689.586371649
O   	   -0.0218740000 	    3.0017590000 	    0.0002840000
C   	   -0.8173290000 	    1.9104140000 	    0.0001700000
C   	   -2.1776930000 	    1.7940140000 	    0.0002320000
C   	   -2.4397670000 	    0.3850190000 	    0.0000440000
N   	   -3.6179900000 	   -0.2495060000 	    0.0000110000
C   	   -3.5614360000 	   -1.5782530000 	   -0.0002080000
C   	   -2.3762810000 	   -2.3231420000 	   -0.0004170000
C   	   -1.1488700000 	   -1.6711240000 	   -0.0003940000
C   	   -1.1863040000 	   -0.2824710000 	   -0.0001410000
N   	   -0.1904720000 	    0.6858570000 	   -0.0000400000
C   	    1.2570360000 	    0.4912240000 	    0.0000760000
C   	    1.7379240000 	   -0.2180920000 	   -1.2717600000
C   	    3.2600090000 	   -0.3839970000 	   -1.2613350000
C   	    3.7333170000 	   -1.1103060000 	    0.0000360000
C   	    3.2597510000 	   -0.3844620000 	    1.2615770000
C   	    1.7376650000 	   -0.2185540000 	    1.2717540000
H   	   -0.5901460000 	    3.7820780000 	    0.0004080000
H   	   -2.9068360000 	    2.5923860000 	    0.0003660000
H   	   -4.5205900000 	   -2.0946420000 	   -0.0002270000
H   	   -2.4221750000 	   -3.4081000000 	   -0.0005990000
H   	   -0.2189430000 	   -2.2328560000 	   -0.0005670000
H   	    1.6832480000 	    1.5004880000 	    0.0003060000
H   	    1.4133240000 	    0.3555950000 	   -2.1475840000
H   	    1.2638950000 	   -1.2054510000 	   -1.3477590000
H   	    3.7336870000 	    0.6074620000 	   -1.3056250000
H   	    3.5809690000 	   -0.9239940000 	   -2.1596910000
H   	    4.8261310000 	   -1.1993350000 	    0.0001340000
H   	    3.3330640000 	   -2.1348650000 	   -0.0001970000
H   	    3.7334220000 	    0.6069800000 	    1.3063320000
H   	    3.5805230000 	   -0.9247920000 	    2.1598000000
H   	    1.4128950000 	    0.3548190000 	    2.1477210000
H   	    1.2636200000 	   -1.2059350000 	    1.3473060000
