16
tauto -379.969219629
O   	    2.4381760000 	    0.0022270000 	   -0.5042520000
C   	    1.3207260000 	   -0.0676380000 	   -0.0272170000
N   	    0.6073570000 	   -1.2268250000 	    0.0083990000
C   	   -0.7474160000 	   -1.3385790000 	    0.5116770000
C   	   -1.7736720000 	   -0.5818600000 	   -0.3288020000
N   	   -1.6942670000 	    0.8655400000 	   -0.4083140000
C   	   -0.7000950000 	    1.5457730000 	   -0.0168100000
C   	    0.6276500000 	    1.1360250000 	    0.6023100000
H   	    1.0538760000 	   -2.0201870000 	   -0.4279130000
H   	   -0.7926040000 	   -1.0027670000 	    1.5564060000
H   	   -1.0120430000 	   -2.4001380000 	    0.5165090000
H   	   -2.7757960000 	   -0.8159650000 	    0.0527570000
H   	   -1.7442500000 	   -0.9584330000 	   -1.3595510000
H   	   -0.8051680000 	    2.6281130000 	   -0.1417380000
H   	    0.4862060000 	    0.9508860000 	    1.6764150000
H   	    1.3295830000 	    1.9673500000 	    0.5135930000
