43
tauto -1103.89787777
C   	    0.7272370000 	   -0.2589280000 	    2.7919220000
N   	    0.5388370000 	    0.6119870000 	    1.6392800000
C   	   -0.6953910000 	    0.5781890000 	    1.0361330000
N   	   -1.5983620000 	   -0.2148290000 	    1.5363530000
C   	   -2.6473770000 	   -0.6078180000 	    0.7179440000
C   	   -3.6922610000 	   -1.3873040000 	    1.2298750000
C   	   -4.6674610000 	   -1.9004210000 	    0.3902750000
C   	   -4.6111060000 	   -1.6641000000 	   -0.9869160000
C   	   -3.5879150000 	   -0.8946850000 	   -1.5184500000
C   	   -2.6244600000 	   -0.3609170000 	   -0.6643270000
N   	   -1.6296800000 	    0.5028530000 	   -1.1318940000
C   	   -0.8304730000 	    1.2006130000 	   -0.3034550000
C   	    0.0628930000 	    2.1723080000 	   -0.7814940000
O   	    0.4309280000 	    3.1354190000 	    0.1686650000
C   	   -0.2614940000 	    4.3557670000 	   -0.0351680000
N   	    1.7175410000 	    1.2226730000 	    1.1674400000
C   	    2.1755780000 	    0.9523660000 	   -0.2123040000
C   	    2.6164150000 	   -0.4959320000 	   -0.3250630000
C   	    3.9442690000 	   -0.8251570000 	   -0.0547350000
C   	    4.3654000000 	   -2.1511920000 	   -0.0537450000
C   	    3.4546100000 	   -3.1694500000 	   -0.3154110000
C   	    2.1263710000 	   -2.8519370000 	   -0.5838310000
C   	    1.7115250000 	   -1.5244100000 	   -0.5934160000
C   	    1.1566780000 	    1.3430040000 	   -1.3406250000
O   	    1.1332600000 	    0.7774760000 	   -2.4160330000
H   	    1.7490380000 	   -0.1072330000 	    3.1359180000
H   	    0.5741960000 	   -1.3082720000 	    2.5126900000
H   	    0.0146500000 	   -0.0131640000 	    3.5844220000
H   	   -3.6991060000 	   -1.5854930000 	    2.2977190000
H   	   -5.4723890000 	   -2.5024240000 	    0.8028020000
H   	   -5.3698850000 	   -2.0776960000 	   -1.6450050000
H   	   -3.5368560000 	   -0.6929460000 	   -2.5863870000
H   	   -1.6144570000 	    0.7733970000 	   -2.1084540000
H   	    0.1167770000 	    5.0561310000 	    0.7140750000
H   	   -1.3425410000 	    4.2276790000 	    0.1005200000
H   	   -0.0743930000 	    4.7513250000 	   -1.0403150000
H   	    1.6174860000 	    2.2232620000 	    1.2903880000
H   	    3.0597170000 	    1.5933670000 	   -0.3149130000
H   	    4.6575820000 	   -0.0327070000 	    0.1635760000
H   	    5.4063760000 	   -2.3871840000 	    0.1524810000
H   	    3.7789670000 	   -4.2070670000 	   -0.3147520000
H   	    1.4083630000 	   -3.6403220000 	   -0.7948450000
H   	    0.6763890000 	   -1.2925590000 	   -0.8324830000
