23
tauto -646.65171499
O   	    4.4907710000 	   -0.8057750000 	   -0.0000190000
C   	    3.2182880000 	   -0.3369800000 	    0.0000010000
C   	    2.1125210000 	   -1.1341220000 	   -0.0000200000
C   	    0.8099240000 	   -0.5454090000 	   -0.0000080000
N   	   -0.2658770000 	   -1.3355810000 	   -0.0000040000
C   	   -1.4594800000 	   -0.7276700000 	   -0.0000010000
C   	   -2.6497060000 	   -1.5225720000 	    0.0000040000
C   	   -3.8727410000 	   -0.9252120000 	    0.0000070000
C   	   -3.9924950000 	    0.5002210000 	    0.0000050000
C   	   -2.8831950000 	    1.2887090000 	    0.0000000000
C   	   -1.5802440000 	    0.6976090000 	   -0.0000030000
N   	   -0.4997460000 	    1.4897750000 	   -0.0000040000
C   	    0.6861580000 	    0.8846720000 	   -0.0000070000
C   	    1.8809960000 	    1.6818730000 	    0.0000020000
C   	    3.1019620000 	    1.0943340000 	    0.0000110000
H   	    4.4699710000 	   -1.7719670000 	    0.0002410000
H   	    2.1783040000 	   -2.2194770000 	   -0.0000520000
H   	   -2.5301000000 	   -2.6020770000 	    0.0000050000
H   	   -4.7749750000 	   -1.5313840000 	    0.0000100000
H   	   -4.9820840000 	    0.9492450000 	    0.0000080000
H   	   -2.9411430000 	    2.3733390000 	   -0.0000040000
H   	    1.7618650000 	    2.7611940000 	    0.0000110000
H   	    4.0194380000 	    1.6752510000 	    0.0000330000
