14
tauto -415.831300528
C   	   -1.7242250000 	   -1.4357560000 	    0.2479840000
N   	   -0.7660610000 	   -0.5485130000 	   -0.3733050000
O   	    0.5568410000 	   -1.0051520000 	   -0.1735740000
C   	    1.3051490000 	    0.0989240000 	    0.0239530000
N   	    2.6368040000 	   -0.1566510000 	    0.1592440000
C   	    0.5753150000 	    1.2386470000 	    0.0762850000
C   	   -0.8064950000 	    0.8413840000 	   -0.0714080000
O   	   -1.8553910000 	    1.4519420000 	    0.0041010000
H   	   -1.7521950000 	   -2.3888480000 	   -0.2847120000
H   	   -2.6890760000 	   -0.9337910000 	    0.1551140000
H   	   -1.4993230000 	   -1.6050270000 	    1.3084930000
H   	    2.9533410000 	   -1.0359070000 	   -0.2235600000
H   	    3.2557190000 	    0.6216320000 	   -0.0077580000
H   	    0.9262730000 	    2.2445710000 	    0.2457520000
