12
tauto -323.417615852
O   	    2.2816940000 	   -0.1127540000 	   -0.0000490000
C   	    0.9313310000 	   -0.0257920000 	    0.0000360000
C   	    0.2425890000 	    1.1855650000 	   -0.0000340000
C   	   -1.1472760000 	    1.1489480000 	    0.0000570000
N   	   -1.8719660000 	    0.0307930000 	    0.0000170000
C   	   -1.1874490000 	   -1.1178530000 	   -0.0000850000
C   	    0.1959240000 	   -1.2100470000 	    0.0000280000
H   	    2.6578620000 	    0.7771770000 	    0.0002730000
H   	    0.7704990000 	    2.1368520000 	   -0.0001110000
H   	   -1.7078590000 	    2.0828840000 	   -0.0000750000
H   	   -1.7864380000 	   -2.0273810000 	    0.0000690000
H   	    0.7054270000 	   -2.1679810000 	    0.0001110000
