10
tauto -396.381100852
O   	    2.3244990000 	   -0.5024330000 	    0.0379770000
C   	    1.0185740000 	   -0.2263370000 	   -0.0019670000
N   	    0.6311480000 	    1.1146920000 	   -0.0875650000
O   	   -0.7702590000 	    1.1186010000 	   -0.0232250000
C   	   -0.0355500000 	   -1.0552370000 	    0.0071790000
C   	   -1.2199000000 	   -0.2127250000 	    0.0084240000
O   	   -2.3954330000 	   -0.4448570000 	    0.0070910000
H   	    2.8214930000 	    0.2456770000 	   -0.3248260000
H   	    0.9541450000 	    1.6799180000 	    0.6964100000
H   	   -0.0428780000 	   -2.1331350000 	   -0.0151870000
