14
tauto -324.600231744
O   	    2.3102420000 	   -0.1015740000 	    0.0614290000
C   	    0.9718700000 	    0.0573400000 	   -0.0085620000
C   	    0.3100780000 	    1.2227480000 	    0.0776230000
C   	   -1.1458390000 	    1.1992230000 	   -0.1043900000
N   	   -1.8891430000 	    0.1625340000 	   -0.0610880000
C   	   -1.2061640000 	   -1.0860540000 	    0.2691510000
C   	    0.2176620000 	   -1.2096100000 	   -0.2769580000
H   	    2.7238880000 	    0.7649750000 	    0.1832130000
H   	    0.8201900000 	    2.1743030000 	    0.2094270000
H   	   -1.6397480000 	    2.1548910000 	   -0.2977690000
H   	   -1.8177220000 	   -1.9201740000 	   -0.0877430000
H   	   -1.1786640000 	   -1.1596190000 	    1.3672810000
H   	    0.2111030000 	   -1.3851400000 	   -1.3621520000
H   	    0.7373800000 	   -2.0562700000 	    0.1827390000
