14
tauto -415.835144545
C   	    0.0605310000 	    2.1780040000 	    0.0061190000
C   	    0.0374410000 	    0.6846240000 	    0.0279460000
C   	   -1.0156360000 	   -0.1665220000 	   -0.0174820000
N   	   -2.3600660000 	    0.0512440000 	   -0.0929120000
O   	   -0.6674260000 	   -1.4727920000 	   -0.0217570000
N   	    0.7338380000 	   -1.4929600000 	    0.1543450000
C   	    1.2145610000 	   -0.1562260000 	    0.0228260000
O   	    2.3984900000 	    0.1071400000 	   -0.0501870000
H   	   -0.3500130000 	    2.6188280000 	    0.9231390000
H   	   -0.4921080000 	    2.5898820000 	   -0.8465770000
H   	    1.1014420000 	    2.5037220000 	   -0.0795090000
H   	   -2.6759270000 	    0.9467500000 	    0.2484710000
H   	   -2.9432490000 	   -0.7272410000 	    0.1796290000
H   	    1.1135660000 	   -2.1539890000 	   -0.5160790000
