27
tauto -557.056120743
C   	   -3.8891150000 	    0.1140810000 	    0.1136360000
C   	   -2.6417550000 	   -0.6932310000 	   -0.1781380000
O   	   -1.5346670000 	    0.0342480000 	    0.3613860000
C   	   -0.3088320000 	   -0.5077690000 	    0.1802380000
N   	   -0.1664570000 	   -1.6210410000 	   -0.4021670000
C   	    1.1626930000 	   -2.1993240000 	   -0.5484080000
C   	    2.3311920000 	   -1.2560440000 	   -0.2660600000
C   	    2.0496940000 	   -0.4304140000 	    0.9866410000
C   	    0.7712720000 	    0.3791770000 	    0.7766860000
C   	    1.0249800000 	    1.6365830000 	   -0.0769950000
C   	   -0.1584370000 	    2.5039290000 	   -0.4421080000
O   	    2.1488280000 	    1.9287380000 	   -0.4242970000
H   	   -4.7708230000 	   -0.3999900000 	   -0.2818880000
H   	   -3.8285460000 	    1.1028610000 	   -0.3521200000
H   	   -4.0216600000 	    0.2486670000 	    1.1914050000
H   	   -2.4856840000 	   -0.8403460000 	   -1.2526080000
H   	   -2.6747540000 	   -1.6866340000 	    0.2818850000
H   	    1.2357230000 	   -2.6084570000 	   -1.5626750000
H   	    1.2072200000 	   -3.0632540000 	    0.1296810000
H   	    2.4852410000 	   -0.5737570000 	   -1.1102780000
H   	    3.2528350000 	   -1.8376590000 	   -0.1520030000
H   	    2.8794570000 	    0.2467260000 	    1.2036430000
H   	    1.9181310000 	   -1.0948490000 	    1.8504540000
H   	    0.3718960000 	    0.7472320000 	    1.7323570000
H   	   -0.7447580000 	    2.0126450000 	   -1.2263930000
H   	    0.2090220000 	    3.4622640000 	   -0.8137550000
H   	   -0.8315320000 	    2.6460210000 	    0.4077990000
