15
tauto -362.726685269
C   	   -1.9755760000 	   -1.1750590000 	    0.0000190000
C   	   -0.5856780000 	   -0.5962760000 	   -0.0000170000
C   	    0.5499710000 	   -1.4026060000 	    0.0000090000
N   	    1.8080230000 	   -0.9642970000 	    0.0000070000
C   	    1.9744620000 	    0.3605750000 	   -0.0000070000
C   	    0.9326880000 	    1.2757210000 	   -0.0000180000
C   	   -0.3706000000 	    0.7869540000 	   -0.0000240000
O   	   -1.3855390000 	    1.6849220000 	    0.0000760000
H   	   -1.9362670000 	   -2.2678160000 	   -0.0002130000
H   	   -2.5472420000 	   -0.8734820000 	   -0.8880050000
H   	   -2.5470280000 	   -0.8737750000 	    0.8882690000
H   	    0.4229650000 	   -2.4863180000 	   -0.0000200000
H   	    3.0047290000 	    0.7134170000 	    0.0000280000
H   	    1.1097820000 	    2.3462960000 	   -0.0000230000
H   	   -2.2303920000 	    1.2165320000 	   -0.0004660000
