30
tauto -857.685794449
C   	    4.0850590000 	   -2.4190920000 	    0.9000400000
C   	    3.5016290000 	   -2.1331580000 	   -0.4704650000
O   	    2.2884350000 	   -1.3656210000 	   -0.3703410000
C   	    2.4405000000 	   -0.0560290000 	   -0.2033320000
C   	    1.1291000000 	    0.6830170000 	   -0.1100250000
C   	    1.2002590000 	    2.0627810000 	    0.0602800000
C   	    0.0083500000 	    2.7752920000 	    0.1478480000
O   	   -0.0450270000 	    4.1140390000 	    0.3135190000
C   	   -1.1926850000 	    2.0744690000 	    0.0609310000
C   	   -1.1341090000 	    0.6974890000 	   -0.1089770000
C   	   -2.4497440000 	   -0.0345890000 	   -0.2024910000
O   	   -2.3022260000 	   -1.3463540000 	   -0.3676270000
C   	   -3.5190800000 	   -2.1073120000 	   -0.4683330000
C   	   -4.1063240000 	   -2.3884910000 	    0.9016190000
O   	   -3.5162310000 	    0.5376730000 	   -0.1369620000
N   	   -0.0040820000 	   -0.0062520000 	   -0.1946950000
O   	    3.5093230000 	    0.5136030000 	   -0.1357560000
H   	    4.9592660000 	   -3.0714270000 	    0.8031180000
H   	    3.3481280000 	   -2.9206630000 	    1.5345210000
H   	    4.3997460000 	   -1.4903510000 	    1.3831020000
H   	    3.1955370000 	   -3.0509640000 	   -0.9769440000
H   	    4.2124060000 	   -1.5898560000 	   -1.0989250000
H   	    2.1747660000 	    2.5397380000 	    0.1196730000
H   	    0.8534040000 	    4.4678220000 	    0.3563090000
H   	   -2.1487800000 	    2.5816990000 	    0.1231930000
H   	   -3.2177410000 	   -3.0275980000 	   -0.9733510000
H   	   -4.2263000000 	   -1.5609140000 	   -1.0981430000
H   	   -3.3735170000 	   -2.8942370000 	    1.5376350000
H   	   -4.9846660000 	   -3.0351980000 	    0.8040930000
H   	   -4.4156010000 	   -1.4572680000 	    1.3833400000
