14
tauto -378.770424405
N   	    2.4160340000 	   -0.8750560000 	   -0.0660820000
C   	    1.1848390000 	   -0.2538220000 	   -0.0104610000
N   	    1.2071490000 	    1.0851520000 	    0.0002830000
C   	    0.0281760000 	    1.7076480000 	    0.0031870000
C   	   -1.2032350000 	    1.0739690000 	    0.0052100000
C   	   -1.2026910000 	   -0.3259780000 	    0.0005370000
O   	   -2.3431670000 	   -1.0568420000 	    0.0041080000
C   	    0.0033370000 	   -1.0070800000 	   -0.0096090000
H   	    3.1843870000 	   -0.2690280000 	    0.1833790000
H   	    2.4756090000 	   -1.8070420000 	    0.3148230000
H   	    0.0729820000 	    2.7961840000 	    0.0093880000
H   	   -2.1285500000 	    1.6443030000 	    0.0129610000
H   	   -3.0996840000 	   -0.4564490000 	    0.0026430000
H   	    0.0157580000 	   -2.0923330000 	   -0.0286460000
