22
tauto -554.417172163
O   	   -3.5901470000 	   -1.5511440000 	    0.2729320000
C   	   -2.6660110000 	   -0.5777610000 	    0.1019380000
C   	   -1.2962040000 	   -0.8205700000 	    0.1361340000
C   	   -0.4145800000 	    0.2473830000 	   -0.0489940000
C   	    1.0625160000 	    0.0426250000 	   -0.0260420000
C   	    1.8979390000 	    1.1170990000 	    0.2925860000
C   	    3.2764330000 	    0.9513250000 	    0.3350140000
C   	    3.8431340000 	   -0.2885660000 	    0.0507060000
C   	    3.0210580000 	   -1.3602570000 	   -0.2828510000
C   	    1.6406390000 	   -1.1948260000 	   -0.3211070000
N   	   -0.8395900000 	    1.5029100000 	   -0.2351900000
C   	   -2.1566750000 	    1.7130940000 	   -0.2590540000
C   	   -3.1153160000 	    0.7247090000 	   -0.1065110000
H   	   -3.1411290000 	   -2.3959050000 	    0.4084520000
H   	   -0.9223330000 	   -1.8229420000 	    0.3309170000
H   	    1.4441720000 	    2.0808910000 	    0.5012880000
H   	    3.9128700000 	    1.7945080000 	    0.5916870000
H   	    4.9220690000 	   -0.4176550000 	    0.0826770000
H   	    3.4553840000 	   -2.3276480000 	   -0.5220330000
H   	    1.0143290000 	   -2.0349910000 	   -0.6117570000
H   	   -2.4669440000 	    2.7455640000 	   -0.4134860000
H   	   -4.1777030000 	    0.9414280000 	   -0.1357780000
