15
tauto -362.729084321
C   	   -2.5394630000 	   -0.8376890000 	    0.0007910000
C   	   -1.1730030000 	   -0.2059860000 	   -0.0012130000
N   	   -1.1454060000 	    1.1363360000 	   -0.0007430000
C   	    0.0498450000 	    1.7203530000 	    0.0001310000
C   	    1.2617660000 	    1.0396930000 	    0.0005950000
C   	    1.2195070000 	   -0.3521660000 	    0.0000460000
O   	    2.3285220000 	   -1.1287890000 	    0.0002730000
C   	   -0.0216230000 	   -0.9853930000 	   -0.0010720000
H   	   -3.1160170000 	   -0.4844760000 	   -0.8596980000
H   	   -3.0873400000 	   -0.5419450000 	    0.9012290000
H   	   -2.4828640000 	   -1.9293140000 	   -0.0344570000
H   	    0.0475230000 	    2.8099580000 	    0.0001200000
H   	    2.2050190000 	    1.5813270000 	    0.0009180000
H   	    3.1112130000 	   -0.5625480000 	    0.0010610000
H   	   -0.0700420000 	   -2.0699170000 	   -0.0018350000
