17
tauto -476.022215277
C   	    2.4878440000 	   -1.4867350000 	   -0.0001840000
C   	    2.0203980000 	   -0.0450130000 	    0.0000160000
C   	    0.5245210000 	    0.2210430000 	    0.0000600000
N   	    0.1674810000 	    1.5120230000 	   -0.0000480000
C   	   -1.1324700000 	    1.7782170000 	   -0.0001340000
C   	   -2.1356500000 	    0.8115340000 	   -0.0000510000
C   	   -1.7513720000 	   -0.5243650000 	    0.0000020000
O   	   -2.6250620000 	   -1.5565820000 	    0.0000640000
C   	   -0.3887810000 	   -0.8263800000 	    0.0000370000
O   	    2.8076320000 	    0.8721650000 	    0.0001880000
H   	    2.1211850000 	   -2.0186510000 	    0.8848740000
H   	    3.5787080000 	   -1.4952240000 	   -0.0010760000
H   	    2.1196230000 	   -2.0191800000 	   -0.8842450000
H   	   -1.4045190000 	    2.8329270000 	   -0.0000440000
H   	   -3.1841880000 	    1.1009810000 	   -0.0000330000
H   	   -3.5279930000 	   -1.2126030000 	    0.0002730000
H   	   -0.0826800000 	   -1.8668890000 	    0.0000930000
