14
tauto -527.880784582
O   	   -2.1737010000 	   -1.4361220000 	   -0.0002390000
N   	   -1.6537990000 	   -0.3413160000 	    0.0002120000
C   	   -0.2090180000 	   -0.2506120000 	   -0.0000950000
C   	    0.5350570000 	   -1.4353850000 	   -0.0003200000
N   	    1.8551920000 	   -1.4690460000 	   -0.0002840000
C   	    2.4840020000 	   -0.2790770000 	   -0.0000800000
C   	    1.8512910000 	    0.9459880000 	    0.0000520000
C   	    0.4504420000 	    0.9929300000 	   -0.0000100000
O   	   -0.1469940000 	    2.1771660000 	   -0.0001530000
O   	   -2.2976310000 	    0.7141060000 	    0.0009130000
H   	    0.0049020000 	   -2.3840630000 	   -0.0003090000
H   	    3.5713130000 	   -0.3234880000 	   -0.0000910000
H   	    2.4054940000 	    1.8782900000 	    0.0001200000
H   	   -1.1154850000 	    2.0175300000 	   -0.0006630000
