19
tauto -531.394713056
C   	   -3.4857480000 	   -0.7749550000 	   -0.1074130000
C   	   -2.1653730000 	   -0.0710000000 	    0.1021070000
N   	   -1.0610620000 	   -0.7531890000 	   -0.2939340000
C   	    0.3109370000 	   -0.4218630000 	   -0.1006820000
C   	    1.1946830000 	   -1.4890650000 	    0.0670300000
N   	    2.5126280000 	   -1.3866640000 	    0.1705940000
C   	    3.0113690000 	   -0.1460980000 	    0.1193030000
C   	    2.2362470000 	    0.9894900000 	   -0.0251250000
C   	    0.8464980000 	    0.8781050000 	   -0.1429570000
O   	    0.1370850000 	    1.9966770000 	   -0.3216590000
O   	   -2.1267440000 	    1.0526000000 	    0.6011540000
H   	   -3.3951470000 	   -1.7540440000 	   -0.5849490000
H   	   -4.1283840000 	   -0.1349830000 	   -0.7172270000
H   	   -3.9694670000 	   -0.8945530000 	    0.8658140000
H   	   -1.2155240000 	   -1.6783840000 	   -0.6673530000
H   	    0.7861120000 	   -2.5014470000 	    0.1074160000
H   	    4.0929670000 	   -0.0607740000 	    0.2056550000
H   	    2.6776040000 	    1.9802050000 	   -0.0574560000
H   	   -0.7835290000 	    1.8410490000 	    0.0019380000
