18
tauto -551.258372473
C   	   -3.4616950000 	   -0.6097390000 	    0.0000130000
O   	   -2.0564300000 	   -0.8825730000 	    0.0000230000
C   	   -1.2647980000 	    0.1885810000 	   -0.0000010000
C   	    0.1727520000 	   -0.1271770000 	   -0.0000080000
C   	    0.6528560000 	   -1.4435260000 	   -0.0000220000
N   	    1.9344730000 	   -1.7767170000 	   -0.0000190000
C   	    2.8123710000 	   -0.7583780000 	    0.0000090000
C   	    2.4701510000 	    0.5788720000 	    0.0000280000
C   	    1.1131940000 	    0.9229060000 	    0.0000040000
O   	    0.7769150000 	    2.2112140000 	   -0.0000130000
O   	   -1.7082120000 	    1.3309260000 	   -0.0000160000
H   	   -3.9465310000 	   -1.5853220000 	   -0.0001710000
H   	   -3.7377590000 	   -0.0402320000 	   -0.8903440000
H   	   -3.7378130000 	   -0.0405360000 	    0.8905450000
H   	   -0.0636490000 	   -2.2623650000 	   -0.0000620000
H   	    3.8630430000 	   -1.0443680000 	    0.0000530000
H   	    3.2199370000 	    1.3626750000 	    0.0000510000
H   	   -0.2056990000 	    2.2613980000 	   -0.0000220000
