17
tauto -476.024074493
C   	    2.6219480000 	    0.6604680000 	    0.1189260000
C   	    1.6479830000 	   -0.4986500000 	   -0.0105110000
C   	    0.1690850000 	   -0.2611570000 	   -0.0127590000
C   	   -0.6388120000 	   -1.4122350000 	    0.0120920000
N   	   -1.9625350000 	   -1.4297870000 	    0.0351000000
C   	   -2.5675650000 	   -0.2324560000 	    0.0307560000
C   	   -1.8992620000 	    0.9744090000 	    0.0011150000
C   	   -0.5012160000 	    0.9747520000 	   -0.0250700000
O   	    0.0738180000 	    2.1957050000 	   -0.0644860000
O   	    2.0868360000 	   -1.6284130000 	   -0.0976710000
H   	    2.3962680000 	    1.2886070000 	    0.9894280000
H   	    2.6223990000 	    1.2767170000 	   -0.7909660000
H   	    3.6250130000 	    0.2475690000 	    0.2367480000
H   	   -0.1333480000 	   -2.3751510000 	    0.0180880000
H   	   -3.6560780000 	   -0.2491260000 	    0.0498450000
H   	   -2.4273270000 	    1.9220190000 	   -0.0079310000
H   	    1.0326250000 	    2.1287520000 	   -0.1309480000
