18
tauto -551.249660641
C   	    3.6990520000 	   -0.4003510000 	   -0.3070990000
C   	    2.3315760000 	   -0.1416180000 	    0.2608500000
O   	    1.3841040000 	   -0.3005790000 	   -0.7124840000
C   	    0.0906340000 	    0.0769600000 	   -0.3920790000
N   	   -0.1428520000 	    1.3759140000 	   -0.3356300000
C   	   -1.4028280000 	    1.7330590000 	   -0.0822530000
C   	   -2.4456430000 	    0.8377300000 	    0.1061820000
C   	   -2.1593260000 	   -0.5268710000 	    0.0302750000
O   	   -3.0919980000 	   -1.4902800000 	    0.1939820000
C   	   -0.8501770000 	   -0.9250000000 	   -0.2254760000
O   	    2.0712350000 	    0.1506210000 	    1.3951340000
H   	    3.9318970000 	    0.3644150000 	   -1.0538930000
H   	    3.7220940000 	   -1.3713070000 	   -0.8092780000
H   	    4.4354770000 	   -0.3714320000 	    0.4958330000
H   	   -1.5921780000 	    2.8035840000 	   -0.0312080000
H   	   -3.4531250000 	    1.1948860000 	    0.3048890000
H   	   -3.9473290000 	   -1.0798400000 	    0.3764900000
H   	   -0.5833220000 	   -1.9732660000 	   -0.2888760000
