16
tauto -437.913893982
C   	    2.7335100000 	   -0.6428950000 	    0.0000590000
O   	    1.7332480000 	    0.3568400000 	   -0.0000780000
C   	    0.4324560000 	   -0.0625260000 	   -0.0000240000
C   	   -0.0197890000 	   -1.3718610000 	   -0.0000110000
N   	   -1.3194350000 	   -1.6985510000 	   -0.0000110000
C   	   -2.1991040000 	   -0.7024910000 	    0.0000080000
C   	   -1.8542520000 	    0.6484810000 	    0.0000230000
C   	   -0.5103920000 	    0.9788540000 	   -0.0000010000
O   	   -0.1037740000 	    2.2647380000 	    0.0000030000
H   	    3.6900600000 	   -0.1187810000 	    0.0000940000
H   	    2.6608800000 	   -1.2728890000 	   -0.8950350000
H   	    2.6607460000 	   -1.2727680000 	    0.8952280000
H   	    0.6818300000 	   -2.2033990000 	   -0.0000670000
H   	   -3.2490310000 	   -0.9904880000 	    0.0000430000
H   	   -2.6052470000 	    1.4316590000 	    0.0000640000
H   	    0.8664410000 	    2.2585210000 	    0.0000300000
