25
tauto -614.576845649
O   	   -0.0006370000 	    3.5603370000 	    0.3983620000
C   	   -0.0002380000 	    2.3744410000 	    0.6196140000
C   	   -0.0000410000 	    1.3069230000 	   -0.4600420000
C   	   -1.1799080000 	    0.3699970000 	   -0.2796680000
C   	   -2.5343660000 	    0.6631300000 	   -0.3344600000
C   	   -3.4510060000 	   -0.3656720000 	   -0.1192590000
C   	   -3.0116360000 	   -1.6617610000 	    0.1516470000
C   	   -1.6513540000 	   -1.9554190000 	    0.2135370000
C   	   -0.7364340000 	   -0.9309050000 	   -0.0020230000
C   	    0.7366370000 	   -0.9308000000 	   -0.0020070000
C   	    1.1799240000 	    0.3701600000 	   -0.2796110000
C   	    2.5343530000 	    0.6634960000 	   -0.3344000000
C   	    3.4511340000 	   -0.3651700000 	   -0.1192300000
C   	    3.0119410000 	   -1.6613420000 	    0.1516360000
C   	    1.6517130000 	   -1.9552000000 	    0.2135050000
H   	   -0.0000190000 	    1.9765010000 	    1.6565850000
H   	   -0.0000660000 	    1.8101840000 	   -1.4332330000
H   	   -2.8764070000 	    1.6746190000 	   -0.5431860000
H   	   -4.5165900000 	   -0.1566140000 	   -0.1632340000
H   	   -3.7401740000 	   -2.4514050000 	    0.3167050000
H   	   -1.3157920000 	   -2.9677970000 	    0.4268690000
H   	    2.8762290000 	    1.6750450000 	   -0.5431050000
H   	    4.5166940000 	   -0.1559860000 	   -0.1631910000
H   	    3.7406020000 	   -2.4508810000 	    0.3166610000
H   	    1.3162980000 	   -2.9676320000 	    0.4268070000
