16
tauto -437.926948416
C   	    3.0948510000 	   -0.1422560000 	   -0.0000360000
O   	    1.9017690000 	   -0.9157980000 	    0.0000950000
C   	    0.7400410000 	   -0.2371160000 	   -0.0000940000
N   	    0.7656510000 	    1.0892980000 	    0.0000020000
C   	   -0.4204480000 	    1.7102760000 	    0.0000270000
C   	   -1.6416170000 	    1.0656940000 	    0.0000000000
C   	   -1.6354200000 	   -0.3383150000 	    0.0000080000
O   	   -2.7730230000 	   -1.0712340000 	    0.0000380000
C   	   -0.4265050000 	   -1.0097150000 	   -0.0000280000
H   	    3.9090210000 	   -0.8685440000 	   -0.0009950000
H   	    3.1510740000 	    0.4932930000 	    0.8885540000
H   	    3.1500630000 	    0.4946670000 	   -0.8876730000
H   	   -0.3816830000 	    2.7984900000 	    0.0000200000
H   	   -2.5711590000 	    1.6293340000 	    0.0000370000
H   	   -3.5329410000 	   -0.4751980000 	   -0.0002410000
H   	   -0.3793110000 	   -2.0922730000 	   -0.0000500000
