19
tauto -531.393561318
C   	    2.8432080000 	    1.1620460000 	    0.0010600000
C   	    2.5939600000 	   -0.3226250000 	    0.0000640000
N   	    1.2870160000 	   -0.8046850000 	   -0.0002960000
C   	    0.0420720000 	   -0.1798400000 	   -0.0001720000
N   	   -0.0125050000 	    1.1514360000 	   -0.0005490000
C   	   -1.2264130000 	    1.7072830000 	   -0.0005040000
C   	   -2.4174490000 	    1.0042920000 	   -0.0001810000
C   	   -2.3382530000 	   -0.3932110000 	    0.0001410000
O   	   -3.4289540000 	   -1.1907770000 	    0.0004900000
C   	   -1.0926680000 	   -1.0002790000 	    0.0001580000
O   	    3.4950950000 	   -1.1396870000 	   -0.0005420000
H   	    2.3909020000 	    1.6350960000 	   -0.8734320000
H   	    3.9246180000 	    1.3058460000 	    0.0021620000
H   	    2.3891330000 	    1.6343150000 	    0.8750510000
H   	    1.2779120000 	   -1.8162580000 	   -0.0008380000
H   	   -1.2427300000 	    2.7960700000 	   -0.0007660000
H   	   -3.3731720000 	    1.5217180000 	   -0.0001900000
H   	   -4.2246740000 	   -0.6430170000 	    0.0004720000
H   	   -1.0194340000 	   -2.0833180000 	    0.0004820000
