20
tauto -532.366947387
N   	    3.3033790000 	    0.0829740000 	    0.0000700000
C   	    1.9169420000 	   -0.2907750000 	   -0.0000210000
C   	    1.4255770000 	   -1.6148100000 	   -0.0000130000
N   	    0.1577410000 	   -1.9452200000 	   -0.0000150000
C   	   -0.7507420000 	   -0.9227330000 	   -0.0000170000
C   	   -2.1318270000 	   -1.2512900000 	    0.0000060000
C   	   -3.0831590000 	   -0.2656300000 	    0.0000140000
C   	   -2.7081810000 	    1.1004160000 	    0.0000200000
C   	   -1.3840150000 	    1.4516060000 	    0.0000130000
C   	   -0.3859650000 	    0.4458570000 	   -0.0000130000
C   	    1.0042960000 	    0.7435880000 	   -0.0000210000
O   	    1.4156200000 	    2.0189340000 	   -0.0000380000
H   	    3.7876390000 	   -0.2713690000 	    0.8192520000
H   	    3.7877440000 	   -0.2712080000 	   -0.8191170000
H   	    2.1459150000 	   -2.4363370000 	   -0.0000810000
H   	   -2.3945270000 	   -2.3051320000 	    0.0000120000
H   	   -4.1378550000 	   -0.5294150000 	    0.0000150000
H   	   -3.4764170000 	    1.8689630000 	    0.0000380000
H   	   -1.0763040000 	    2.4932800000 	    0.0000150000
H   	    2.3934480000 	    1.9581040000 	   -0.0000150000
