23
tauto -629.598852788
O   	    0.7895180000 	    1.8542570000 	   -0.8507220000
C   	    1.5836820000 	    0.8719700000 	   -0.3776730000
C   	    2.8505460000 	    1.0749800000 	    0.1615380000
C   	    3.5705010000 	   -0.0279690000 	    0.6104180000
N   	    3.1257900000 	   -1.2818220000 	    0.5620090000
C   	    1.9058080000 	   -1.4648650000 	    0.0500380000
C   	    1.1016200000 	   -0.4420540000 	   -0.4263080000
O   	   -0.1051690000 	   -0.7333750000 	   -1.0096800000
C   	   -1.2648620000 	   -0.3771900000 	   -0.3558720000
C   	   -2.4346270000 	   -0.4851800000 	   -1.1044060000
C   	   -3.6538850000 	   -0.1796780000 	   -0.5158740000
C   	   -3.7134050000 	    0.2350040000 	    0.8136070000
C   	   -2.5379120000 	    0.3371290000 	    1.5483290000
C   	   -1.3066570000 	    0.0310600000 	    0.9730670000
H   	    1.2357100000 	    2.7047250000 	   -0.7450400000
H   	    3.2748290000 	    2.0747950000 	    0.2248170000
H   	    4.5637600000 	    0.1142100000 	    1.0329110000
H   	    1.5294090000 	   -2.4852160000 	   -0.0001010000
H   	   -2.3643160000 	   -0.8080970000 	   -2.1387820000
H   	   -4.5657110000 	   -0.2652240000 	   -1.1015320000
H   	   -4.6690190000 	    0.4735900000 	    1.2719080000
H   	   -2.5712920000 	    0.6551600000 	    2.5874450000
H   	   -0.3935480000 	    0.1025200000 	    1.5563470000
