28
tauto -653.893614432
C   	   -0.1739540000 	    2.2097210000 	    1.6205790000
C   	    0.2354760000 	    2.3199710000 	    0.1704340000
C   	    0.0589740000 	    1.0790200000 	   -0.7106180000
C   	   -1.1787410000 	    0.2494850000 	   -0.4383690000
C   	   -2.5131840000 	    0.6139050000 	   -0.5477070000
C   	   -3.4956450000 	   -0.3288860000 	   -0.2458600000
C   	   -3.1427300000 	   -1.6171780000 	    0.1569290000
C   	   -1.8042590000 	   -1.9865980000 	    0.2649910000
C   	   -0.8245670000 	   -1.0461280000 	   -0.0342470000
C   	    0.6454760000 	   -1.1441140000 	   -0.0174380000
C   	    1.1758260000 	    0.0901110000 	   -0.4174320000
C   	    2.5460310000 	    0.2907090000 	   -0.4833070000
C   	    3.3914590000 	   -0.7690240000 	   -0.1549160000
C   	    2.8670710000 	   -2.0011720000 	    0.2369240000
C   	    1.4900150000 	   -2.1991520000 	    0.3102220000
O   	    0.7296650000 	    3.3255810000 	   -0.2911080000
H   	    0.1792980000 	    1.2669980000 	    2.0523690000
H   	   -1.2667930000 	    2.2112820000 	    1.6997290000
H   	    0.2306830000 	    3.0575130000 	    2.1759060000
H   	    0.1021250000 	    1.4271240000 	   -1.7489860000
H   	   -2.7920830000 	    1.6164490000 	   -0.8668740000
H   	   -4.5453570000 	   -0.0596200000 	   -0.3291380000
H   	   -3.9208170000 	   -2.3406440000 	    0.3864020000
H   	   -1.5346680000 	   -2.9934540000 	    0.5761080000
H   	    2.9492760000 	    1.2555580000 	   -0.7830100000
H   	    4.4687070000 	   -0.6334440000 	   -0.2040950000
H   	    3.5415040000 	   -2.8152720000 	    0.4899400000
H   	    1.0873220000 	   -3.1611590000 	    0.6194120000
