13
tauto -415.632943325
N   	    3.4039670000 	   -0.6952990000 	    0.0001260000
C   	    2.3036190000 	   -0.3383560000 	   -0.0002040000
C   	    0.9101860000 	    0.0695390000 	   -0.0001130000
N   	    0.6785300000 	    1.3877660000 	   -0.0000550000
C   	   -0.5995780000 	    1.7552100000 	    0.0000750000
C   	   -1.6725170000 	    0.8694630000 	    0.0000620000
C   	   -1.4025400000 	   -0.4969010000 	    0.0000820000
O   	   -2.3571540000 	   -1.4488370000 	   -0.0000010000
C   	   -0.0706740000 	   -0.9130190000 	   -0.0000160000
H   	   -0.7851210000 	    2.8274930000 	   -0.0000220000
H   	   -2.6936130000 	    1.2436550000 	    0.0000240000
H   	   -3.2304110000 	   -1.0347400000 	    0.0002450000
H   	    0.1779210000 	   -1.9685870000 	   -0.0000410000
