24
tauto -704.866020531
C   	   -4.6076230000 	   -0.4749860000 	    0.0000730000
O   	   -3.2188420000 	   -0.8203260000 	    0.0000800000
C   	   -2.3714740000 	    0.2083750000 	    0.0000010000
C   	   -0.9571730000 	   -0.1778040000 	   -0.0000850000
C   	   -0.5343210000 	   -1.5381080000 	   -0.0001020000
N   	    0.7055530000 	   -1.9375430000 	   -0.0000780000
C   	    1.6759710000 	   -0.9643290000 	   -0.0000240000
C   	    3.0306980000 	   -1.3741550000 	    0.0000540000
C   	    4.0395230000 	   -0.4437430000 	    0.0000940000
C   	    3.7463770000 	    0.9389980000 	    0.0000560000
C   	    2.4427420000 	    1.3656640000 	   -0.0000090000
C   	    1.3907100000 	    0.4199380000 	   -0.0000420000
C   	    0.0172660000 	    0.8154640000 	   -0.0000640000
O   	   -0.2527180000 	    2.1155370000 	   -0.0000490000
O   	   -2.7594920000 	    1.3733660000 	    0.0000210000
H   	   -5.1420700000 	   -1.4244060000 	   -0.0001340000
H   	   -4.8546560000 	    0.1079650000 	   -0.8901720000
H   	   -4.8546480000 	    0.1075560000 	    0.8905920000
H   	   -1.3001990000 	   -2.3118300000 	   -0.0001610000
H   	    3.2312580000 	   -2.4413330000 	    0.0000860000
H   	    5.0764340000 	   -0.7704590000 	    0.0001670000
H   	    4.5569420000 	    1.6624820000 	    0.0000730000
H   	    2.1959990000 	    2.4229730000 	   -0.0000300000
H   	   -1.2356980000 	    2.2093580000 	    0.0000080000
