27
tauto -686.16277129
C   	   -5.2688980000 	   -0.8723170000 	    0.1062190000
O   	   -4.3010890000 	    0.1313660000 	   -0.0711410000
C   	   -2.9988880000 	   -0.3749660000 	    0.0328500000
N   	   -2.1290820000 	    0.7615590000 	   -0.1255060000
C   	   -0.7707430000 	    0.6147570000 	   -0.0596070000
N   	   -0.2938230000 	   -0.6135680000 	   -0.0555100000
C   	    1.0614320000 	   -0.7609370000 	   -0.0301460000
C   	    1.5876290000 	   -2.0779410000 	   -0.0357720000
C   	    2.9405900000 	   -2.2998150000 	   -0.0038260000
C   	    3.8435780000 	   -1.2157140000 	    0.0363880000
C   	    3.3621470000 	    0.0697090000 	    0.0428970000
C   	    1.9714710000 	    0.3249860000 	    0.0088830000
C   	    1.3955840000 	    1.6418040000 	    0.0118210000
O   	    2.1583550000 	    2.7577470000 	    0.0466410000
C   	    0.0415750000 	    1.7874600000 	   -0.0246980000
H   	   -6.2473470000 	   -0.3954430000 	    0.0195980000
H   	   -5.1843270000 	   -1.3447730000 	    1.0970610000
H   	   -5.1820340000 	   -1.6556010000 	   -0.6619550000
H   	   -2.7822510000 	   -1.1138020000 	   -0.7525100000
H   	   -2.8505350000 	   -0.8732580000 	    1.0092920000
H   	   -2.5311460000 	    1.6409640000 	    0.1632490000
H   	    0.8744950000 	   -2.8965170000 	   -0.0661900000
H   	    3.3240460000 	   -3.3170960000 	   -0.0093230000
H   	    4.9140650000 	   -1.3985680000 	    0.0628820000
H   	    4.0815310000 	    0.8880080000 	    0.0753890000
H   	    3.0922810000 	    2.5159810000 	    0.0538210000
H   	   -0.3994360000 	    2.7791070000 	   -0.0382580000
