25
tauto -630.824519837
C   	    4.5458330000 	   -0.4786600000 	   -0.2154130000
O   	    3.1503990000 	   -0.3886050000 	   -0.4064630000
C   	    2.5713310000 	    0.6816950000 	    0.3297970000
C   	    1.0796640000 	    0.6829910000 	    0.1422310000
C   	    0.3715370000 	    1.9032320000 	    0.0357850000
N   	   -0.9282320000 	    2.0311820000 	   -0.0448120000
C   	   -1.6613570000 	    0.8777220000 	   -0.0332170000
C   	   -3.0748770000 	    0.9770680000 	   -0.1151270000
C   	   -3.8530370000 	   -0.1502580000 	   -0.1160100000
C   	   -3.2610250000 	   -1.4346510000 	   -0.0382740000
C   	   -1.8994060000 	   -1.5633210000 	    0.0395990000
C   	   -1.0773590000 	   -0.4084500000 	    0.0471180000
C   	    0.3430980000 	   -0.4853610000 	    0.1342950000
O   	    0.8970110000 	   -1.7088580000 	    0.2098880000
H   	    4.8998660000 	   -1.3247220000 	   -0.8074040000
H   	    4.7951460000 	   -0.6421030000 	    0.8432520000
H   	    5.0449830000 	    0.4377630000 	   -0.5594410000
H   	    2.9989790000 	    1.6388440000 	   -0.0057040000
H   	    2.8320640000 	    0.5613280000 	    1.3955820000
H   	    0.9466910000 	    2.8321450000 	    0.0223580000
H   	   -3.5038030000 	    1.9728560000 	   -0.1774510000
H   	   -4.9348410000 	   -0.0627240000 	   -0.1794980000
H   	   -3.8927070000 	   -2.3190770000 	   -0.0435590000
H   	   -1.4279640000 	   -2.5395900000 	    0.0973430000
H   	    1.8535170000 	   -1.6053320000 	    0.0361020000
