25
tauto -630.818123432
C   	   -3.8154320000 	   -0.1166730000 	    1.1872690000
O   	   -3.6723860000 	   -0.1342010000 	   -0.2149170000
C   	   -2.6384900000 	   -0.9859500000 	   -0.6426710000
C   	   -1.2462530000 	   -0.4345890000 	   -0.3945380000
N   	   -0.2847970000 	   -1.3204400000 	   -0.2674790000
C   	    0.9825580000 	   -0.8503340000 	   -0.0933840000
C   	    2.0298220000 	   -1.8005920000 	    0.0385170000
C   	    3.3248680000 	   -1.3987220000 	    0.2253820000
C   	    3.6422960000 	   -0.0213560000 	    0.2936570000
C   	    2.6537380000 	    0.9186220000 	    0.1696070000
C   	    1.3033690000 	    0.5296670000 	   -0.0295360000
C   	    0.2171950000 	    1.4485710000 	   -0.1712890000
O   	    0.3920590000 	    2.7879590000 	   -0.1315670000
C   	   -1.0513870000 	    0.9634920000 	   -0.3551250000
H   	   -4.6610990000 	    0.5362430000 	    1.4153880000
H   	   -2.9171830000 	    0.2737940000 	    1.6874960000
H   	   -4.0225970000 	   -1.1246280000 	    1.5774030000
H   	   -2.7796920000 	   -1.1165060000 	   -1.7217350000
H   	   -2.7071160000 	   -1.9777280000 	   -0.1718020000
H   	    1.7559330000 	   -2.8500370000 	   -0.0162000000
H   	    4.1164930000 	   -2.1368610000 	    0.3237100000
H   	    4.6723410000 	    0.2889560000 	    0.4459820000
H   	    2.9297410000 	    1.9708330000 	    0.2313420000
H   	    1.3282100000 	    2.9970850000 	   -0.0266150000
H   	   -1.8925490000 	    1.6390400000 	   -0.4680890000
