24
tauto -704.844467082
C   	    4.4542410000 	   -1.1354510000 	    0.0002940000
O   	    3.0293360000 	   -1.0497660000 	    0.0008790000
C   	    2.5477820000 	    0.1923350000 	   -0.0002160000
C   	    1.0395880000 	    0.2440950000 	   -0.0000550000
N   	    0.3748770000 	   -0.8869810000 	   -0.0000840000
C   	   -0.9824460000 	   -0.8035560000 	   -0.0000600000
C   	   -1.7177360000 	   -2.0201610000 	   -0.0001380000
C   	   -3.0853150000 	   -2.0125290000 	   -0.0001640000
C   	   -3.7917370000 	   -0.7850710000 	   -0.0001340000
C   	   -3.1119870000 	    0.4032730000 	   -0.0000260000
C   	   -1.6919400000 	    0.4261550000 	    0.0000480000
C   	   -0.9115080000 	    1.6220340000 	    0.0001750000
O   	   -1.4662020000 	    2.8530000000 	    0.0004270000
C   	    0.4569150000 	    1.5270570000 	    0.0000340000
O   	    3.2389360000 	    1.1867920000 	   -0.0011760000
H   	    4.6828500000 	   -2.2011090000 	   -0.0013990000
H   	    4.8678560000 	   -0.6539730000 	    0.8902260000
H   	    4.8674380000 	   -0.6511440000 	   -0.8882650000
H   	   -1.1459250000 	   -2.9432480000 	   -0.0001900000
H   	   -3.6372790000 	   -2.9485630000 	   -0.0002320000
H   	   -4.8782920000 	   -0.7885720000 	   -0.0002360000
H   	   -3.6865850000 	    1.3286150000 	   -0.0001270000
H   	   -2.4287520000 	    2.7859740000 	    0.0011860000
H   	    1.0828500000 	    2.4115900000 	    0.0000440000
