22
tauto -591.523308483
C   	   -3.9622060000 	   -0.2998520000 	    0.0001610000
O   	   -2.8076320000 	   -1.1147810000 	    0.0000990000
C   	   -1.5941730000 	   -0.5227310000 	    0.0001990000
N   	   -0.5956540000 	   -1.3672780000 	   -0.0000960000
C   	    0.6617100000 	   -0.8550800000 	   -0.0001690000
C   	    1.7514940000 	   -1.7681800000 	   -0.0003250000
C   	    3.0446620000 	   -1.3203070000 	   -0.0001080000
C   	    3.3256680000 	    0.0670630000 	    0.0003080000
C   	    2.2973410000 	    0.9714240000 	    0.0003700000
C   	    0.9478580000 	    0.5341160000 	    0.0000670000
C   	   -0.1811660000 	    1.4091670000 	   -0.0000760000
O   	   -0.0561250000 	    2.7541880000 	   -0.0004340000
C   	   -1.4491420000 	    0.8886970000 	    0.0000130000
H   	   -4.8089100000 	   -0.9876210000 	    0.0001660000
H   	   -4.0115000000 	    0.3321160000 	   -0.8953030000
H   	   -4.0113250000 	    0.3320560000 	    0.8956720000
H   	    1.5100060000 	   -2.8268220000 	   -0.0005910000
H   	    3.8659420000 	   -2.0323590000 	   -0.0002610000
H   	    4.3559330000 	    0.4117310000 	    0.0006440000
H   	    2.5411560000 	    2.0337000000 	    0.0008080000
H   	    0.8775650000 	    2.9981140000 	    0.0000040000
H   	   -2.2915120000 	    1.5688710000 	   -0.0004220000
