24
tauto -630.618359785
O   	   -0.0840560000 	    2.5696980000 	    0.0001010000
C   	   -0.0069370000 	    1.2217170000 	    0.0000510000
C   	    1.2108430000 	    0.5220590000 	   -0.0000230000
C   	    2.4945550000 	    1.1556440000 	   -0.0002010000
C   	    3.6384580000 	    0.4183220000 	   -0.0001600000
C   	    3.5732000000 	   -1.0076910000 	    0.0000560000
C   	    2.3715500000 	   -1.6442810000 	    0.0001410000
C   	    1.1403070000 	   -0.9081480000 	    0.0000620000
N   	   -0.0013050000 	   -1.6029710000 	    0.0000660000
C   	   -1.1491150000 	   -0.9110020000 	   -0.0000100000
C   	   -2.3809660000 	   -1.6419950000 	   -0.0000660000
C   	   -3.5774270000 	   -0.9925330000 	   -0.0000880000
C   	   -3.6355130000 	    0.4339570000 	   -0.0000370000
C   	   -2.4884410000 	    1.1678280000 	    0.0000170000
C   	   -1.2175450000 	    0.5144910000 	    0.0000060000
H   	    0.8026970000 	    2.9509140000 	    0.0009380000
H   	    2.5796330000 	    2.2420560000 	   -0.0005320000
H   	    4.6062210000 	    0.9119270000 	   -0.0003420000
H   	    4.4963680000 	   -1.5813990000 	    0.0001130000
H   	    2.2909870000 	   -2.7272130000 	    0.0002560000
H   	   -2.3103860000 	   -2.7256380000 	   -0.0000910000
H   	   -4.5043440000 	   -1.5607930000 	   -0.0001340000
H   	   -4.6022760000 	    0.9299480000 	   -0.0000340000
H   	   -2.5151320000 	    2.2532090000 	    0.0000630000
