13
tauto -398.554116039
O   	    2.7052410000 	   -0.0169080000 	    0.0000250000
N   	    1.4318640000 	   -0.0093660000 	   -0.0000060000
C   	    0.7395880000 	    1.1669780000 	   -0.0000090000
C   	   -0.6367710000 	    1.2046320000 	    0.0000220000
C   	    0.7234440000 	   -1.1694340000 	   -0.0000040000
C   	   -0.6590690000 	   -1.1819620000 	   -0.0000400000
C   	   -1.3662790000 	    0.0163490000 	    0.0000100000
O   	   -2.7213040000 	    0.0966160000 	   -0.0001110000
H   	    1.3764410000 	    2.0421960000 	    0.0000050000
H   	   -1.1526720000 	    2.1588470000 	    0.0000520000
H   	    1.3420780000 	   -2.0575630000 	   -0.0000190000
H   	   -1.1702460000 	   -2.1415670000 	   -0.0001190000
H   	   -3.0956270000 	   -0.7933830000 	    0.0009340000
