25
tauto -705.758982676
O   	   -0.0007830000 	   -2.6718250000 	    0.0001020000
N   	    0.0005210000 	   -1.3913390000 	   -0.0001210000
C   	    1.1874200000 	   -0.6991230000 	   -0.0000510000
C   	    2.3985070000 	   -1.4406360000 	   -0.0000060000
C   	    3.5912010000 	   -0.7799510000 	    0.0000320000
C   	    3.6362740000 	    0.6443330000 	    0.0000410000
C   	    2.4842660000 	    1.3718500000 	    0.0000200000
C   	    1.2128100000 	    0.7192420000 	   -0.0000260000
C   	   -1.1797780000 	   -0.6950570000 	   -0.0000570000
C   	   -2.3904870000 	   -1.4412840000 	   -0.0000240000
C   	   -3.5881900000 	   -0.7936670000 	    0.0000210000
C   	   -3.6400860000 	    0.6309200000 	    0.0000510000
C   	   -2.4917880000 	    1.3617910000 	    0.0000370000
C   	   -1.2062960000 	    0.7292190000 	   -0.0000200000
C   	    0.0061000000 	    1.4310190000 	   -0.0000370000
O   	    0.0902440000 	    2.7839580000 	   -0.0000100000
H   	    2.3194910000 	   -2.5207880000 	   -0.0000310000
H   	    4.5203280000 	   -1.3434460000 	    0.0000440000
H   	    4.5982300000 	    1.1494490000 	    0.0000720000
H   	    2.5024560000 	    2.4568230000 	    0.0000430000
H   	   -2.3010090000 	   -2.5207960000 	   -0.0000610000
H   	   -4.5137170000 	   -1.3624230000 	    0.0000250000
H   	   -4.6031100000 	    1.1336660000 	    0.0000970000
H   	   -2.5680640000 	    2.4478350000 	    0.0000880000
H   	   -0.7936760000 	    3.1700550000 	   -0.0000640000
