19
tauto -569.235615246
N   	    4.2907390000 	   -0.9484440000 	   -0.0000600000
C   	    3.1704760000 	   -0.6599650000 	   -0.0000530000
C   	    1.7745000000 	   -0.2544160000 	    0.0000320000
N   	    0.8842280000 	   -1.2202060000 	    0.0000640000
C   	   -0.4232150000 	   -0.8446290000 	    0.0000620000
C   	   -1.4025680000 	   -1.8741330000 	    0.0000610000
C   	   -2.7358010000 	   -1.5695000000 	   -0.0000250000
C   	   -3.1601330000 	   -0.2183070000 	   -0.0000910000
C   	   -2.2400890000 	    0.7952810000 	   -0.0000650000
C   	   -0.8494320000 	    0.5095210000 	    0.0000520000
C   	    0.1683670000 	    1.5106320000 	    0.0000280000
O   	   -0.1042470000 	    2.8297270000 	    0.0000040000
C   	    1.4869190000 	    1.1263840000 	   -0.0000380000
H   	   -1.0440940000 	   -2.8989600000 	    0.0001380000
H   	   -3.4774880000 	   -2.3633400000 	   -0.0000530000
H   	   -4.2216800000 	    0.0125050000 	   -0.0001690000
H   	   -2.6017850000 	    1.8225020000 	   -0.0001030000
H   	   -1.0580500000 	    2.9774910000 	    0.0004570000
H   	    2.2781570000 	    1.8673260000 	   -0.0001080000
