19
tauto -569.245683742
N   	   -4.2057440000 	   -0.1751260000 	    0.0003790000
C   	   -3.0846000000 	    0.1229450000 	   -0.0000710000
C   	   -1.6774420000 	    0.3789430000 	   -0.0000580000
C   	   -1.1434540000 	    1.6991300000 	   -0.0000820000
N   	    0.1283650000 	    1.9750440000 	   -0.0000890000
C   	    1.0042840000 	    0.9189140000 	   -0.0000500000
C   	    2.3909130000 	    1.2054480000 	   -0.0000490000
C   	    3.3107590000 	    0.1884490000 	   -0.0000120000
C   	    2.8936190000 	   -1.1633820000 	    0.0000240000
C   	    1.5585810000 	   -1.4736450000 	    0.0000150000
C   	    0.5946300000 	   -0.4361620000 	   -0.0000250000
C   	   -0.8050610000 	   -0.6960620000 	   -0.0000350000
O   	   -1.2022070000 	   -1.9740030000 	    0.0000130000
H   	   -1.8383140000 	    2.5382150000 	   -0.0001100000
H   	    2.6864060000 	    2.2501500000 	   -0.0000770000
H   	    4.3729390000 	    0.4188990000 	    0.0000000000
H   	    3.6367580000 	   -1.9557400000 	    0.0000510000
H   	    1.2206500000 	   -2.5053430000 	    0.0000330000
H   	   -2.1724900000 	   -2.0210410000 	    0.0000320000
