13
tauto -489.950012219
O   	    2.3807290000 	   -1.2368640000 	   -0.0000580000
C   	    1.2956790000 	   -0.7050130000 	    0.0000000000
C   	    0.0000030000 	   -1.4859980000 	    0.0000380000
C   	   -1.2956760000 	   -0.7050170000 	   -0.0000010000
N   	   -1.1690170000 	    0.6747820000 	   -0.0000580000
O   	   -2.3807230000 	   -1.2368740000 	    0.0000070000
N   	    1.1690150000 	    0.6747860000 	    0.0000640000
C   	   -0.0000030000 	    1.4236720000 	    0.0000030000
O   	   -0.0000050000 	    2.6309630000 	    0.0000020000
H   	    0.0000040000 	   -2.1473520000 	    0.8724170000
H   	    0.0000050000 	   -2.1474430000 	   -0.8722710000
H   	   -2.0272120000 	    1.2120710000 	   -0.0000760000
H   	    2.0272070000 	    1.2120790000 	    0.0000410000
