29
tauto -783.201117391
O   	    0.0593040000 	   -1.4063630000 	   -1.1862030000
C   	   -0.6010850000 	   -0.3479420000 	   -0.6760100000
C   	   -1.9649980000 	   -0.3913860000 	   -0.2608560000
C   	   -2.7726170000 	   -1.5573860000 	   -0.3454440000
C   	   -4.0776650000 	   -1.5345700000 	    0.0669260000
C   	   -4.6421920000 	   -0.3434010000 	    0.5842000000
C   	   -3.8873470000 	    0.7938710000 	    0.6742320000
C   	   -2.5297520000 	    0.8043900000 	    0.2552330000
N   	   -1.8369450000 	    1.9718750000 	    0.3725160000
C   	   -0.5844410000 	    1.9628920000 	   -0.0120800000
C   	    0.0831130000 	    0.8388360000 	   -0.5383970000
O   	    1.3758860000 	    0.9796450000 	   -0.9782360000
C   	    2.3929330000 	    0.3700830000 	   -0.2762170000
C   	    3.6387980000 	    0.3727080000 	   -0.8992880000
C   	    4.7285850000 	   -0.1933600000 	   -0.2523410000
C   	    4.5835220000 	   -0.7630030000 	    1.0115350000
C   	    3.3348420000 	   -0.7563570000 	    1.6219030000
C   	    2.2319970000 	   -0.1902080000 	    0.9866150000
H   	   -0.5182820000 	   -2.1792590000 	   -1.2062460000
H   	   -2.3696060000 	   -2.4888570000 	   -0.7410360000
H   	   -4.6839380000 	   -2.4335230000 	   -0.0024290000
H   	   -5.6793840000 	   -0.3385510000 	    0.9083150000
H   	   -4.2904870000 	    1.7232190000 	    1.0654410000
H   	   -0.0195740000 	    2.8908430000 	    0.0740350000
H   	    3.7290990000 	    0.8202090000 	   -1.8845420000
H   	    5.6994390000 	   -0.1906940000 	   -0.7413900000
H   	    5.4380240000 	   -1.2070660000 	    1.5143880000
H   	    3.2085760000 	   -1.1947260000 	    2.6087520000
H   	    1.2610830000 	   -0.1819690000 	    1.4725380000
