20
tauto -681.474853497
O   	    3.6640010000 	    0.4694610000 	    0.0002780000
N   	    2.8778580000 	   -0.4640160000 	    0.0000060000
C   	    1.4211870000 	   -0.1063280000 	   -0.0001260000
N   	    0.6054860000 	   -1.1103440000 	   -0.0000130000
C   	   -0.7220850000 	   -0.8071300000 	    0.0000640000
C   	   -1.6470350000 	   -1.8838000000 	    0.0001300000
C   	   -2.9938140000 	   -1.6430340000 	    0.0000750000
C   	   -3.4820250000 	   -0.3142300000 	   -0.0000390000
C   	   -2.6123840000 	    0.7437360000 	   -0.0000700000
C   	   -1.2101510000 	    0.5255570000 	   -0.0000130000
C   	   -0.2381580000 	    1.5741410000 	   -0.0000610000
O   	   -0.5747820000 	    2.8774830000 	    0.0000430000
C   	    1.0992600000 	    1.2577800000 	   -0.0001190000
O   	    3.1745890000 	   -1.6365690000 	   -0.0002100000
H   	   -1.2391120000 	   -2.8898780000 	    0.0001980000
H   	   -3.6967380000 	   -2.4713890000 	    0.0001110000
H   	   -4.5533900000 	   -0.1345180000 	   -0.0001350000
H   	   -3.0236930000 	    1.7520000000 	   -0.0001970000
H   	   -1.5345780000 	    2.9794410000 	    0.0002350000
H   	    1.8648610000 	    2.0217120000 	   -0.0001050000
