29
tauto -783.22138003
O   	   -3.2258010000 	   -2.4220710000 	    0.2022170000
C   	   -2.1859460000 	   -1.5646400000 	    0.1145790000
C   	   -0.8772470000 	   -1.9557490000 	    0.1395950000
C   	    0.1144970000 	   -0.9426520000 	    0.0369050000
O   	    1.3854750000 	   -1.4240050000 	    0.0543030000
C   	    2.4645030000 	   -0.5506580000 	    0.0446100000
C   	    2.6586350000 	    0.3783140000 	    1.0608760000
C   	    3.8089210000 	    1.1577740000 	    1.0493900000
C   	    4.7572630000 	    1.0064050000 	    0.0395540000
C   	    4.5504190000 	    0.0680590000 	   -0.9658810000
C   	    3.3988690000 	   -0.7143150000 	   -0.9677230000
N   	   -0.1130740000 	    0.3289360000 	   -0.0773000000
C   	   -1.4243090000 	    0.7267250000 	   -0.1008540000
C   	   -1.7058020000 	    2.1082830000 	   -0.2253580000
C   	   -3.0034630000 	    2.5552310000 	   -0.2548890000
C   	   -4.0818450000 	    1.6478040000 	   -0.1615630000
C   	   -3.8383440000 	    0.3023840000 	   -0.0403450000
C   	   -2.5087300000 	   -0.1754820000 	   -0.0088560000
H   	   -2.8870520000 	   -3.3238640000 	    0.2798690000
H   	   -0.5736640000 	   -2.9942480000 	    0.2324000000
H   	    1.9114570000 	    0.4909380000 	    1.8393540000
H   	    3.9658840000 	    1.8890370000 	    1.8381460000
H   	    5.6556400000 	    1.6178490000 	    0.0392530000
H   	    5.2864920000 	   -0.0583670000 	   -1.7556090000
H   	    3.2157060000 	   -1.4548730000 	   -1.7406070000
H   	   -0.8627400000 	    2.7890690000 	   -0.2966760000
H   	   -3.2053710000 	    3.6190420000 	   -0.3525370000
H   	   -5.1031450000 	    2.0179300000 	   -0.1866960000
H   	   -4.6535930000 	   -0.4113600000 	    0.0318080000
