17
tauto -493.020982769
O   	    1.8081490000 	    1.9887680000 	   -0.0001700000
C   	    1.3884200000 	    0.7061820000 	   -0.0000260000
C   	    2.2277960000 	   -0.3835850000 	   -0.0000660000
N   	    1.7886050000 	   -1.6649300000 	    0.0000290000
N   	    0.5244850000 	   -1.9306630000 	    0.0001150000
C   	   -0.3757700000 	   -0.9009030000 	    0.0000490000
C   	   -1.7562290000 	   -1.2377520000 	   -0.0000650000
C   	   -2.7010100000 	   -0.2498640000 	   -0.0001250000
C   	   -2.3172280000 	    1.1184010000 	    0.0000320000
C   	   -0.9961490000 	    1.4733800000 	    0.0001380000
C   	   -0.0023780000 	    0.4598860000 	    0.0000790000
H   	    2.7748460000 	    2.0093440000 	    0.0004680000
H   	    3.3103870000 	   -0.2688140000 	   -0.0002170000
H   	   -2.0151610000 	   -2.2922610000 	   -0.0001130000
H   	   -3.7573640000 	   -0.5050410000 	   -0.0003320000
H   	   -3.0856390000 	    1.8867610000 	    0.0001280000
H   	   -0.6886060000 	    2.5145580000 	    0.0003260000
