33
tauto -896.992011845
C   	    4.8256680000 	   -1.6410970000 	    1.0364870000
C   	    4.2504440000 	   -1.4755140000 	   -0.3575110000
O   	    2.9003780000 	   -0.9850080000 	   -0.3114750000
C   	    2.7567440000 	    0.3274480000 	   -0.1528280000
C   	    1.3334700000 	    0.7706180000 	   -0.1108120000
C   	    1.1552770000 	    2.0706270000 	    0.2245410000
N   	   -0.0783850000 	    2.6307900000 	    0.3271320000
C   	   -1.2330280000 	    1.9080350000 	    0.1405180000
C   	   -2.5054320000 	    2.6904840000 	    0.3105290000
C   	   -1.1401270000 	    0.5882140000 	   -0.1823160000
C   	   -2.4030400000 	   -0.1856740000 	   -0.3619730000
O   	   -2.3072600000 	   -1.4217390000 	    0.1273280000
C   	   -3.4504850000 	   -2.2723010000 	   -0.0542960000
C   	   -4.4908090000 	   -2.0368280000 	    1.0248160000
O   	   -3.4156880000 	    0.2706430000 	   -0.8556440000
C   	    0.1646800000 	   -0.0748100000 	   -0.4401150000
O   	    0.2423250000 	   -1.1922880000 	   -0.9213770000
O   	    3.6866190000 	    1.1032090000 	   -0.0298190000
H   	    5.8181920000 	   -2.1003140000 	    0.9773390000
H   	    4.1824360000 	   -2.2859490000 	    1.6430830000
H   	    4.9227810000 	   -0.6690460000 	    1.5270590000
H   	    4.1658870000 	   -2.4347840000 	   -0.8726070000
H   	    4.8570780000 	   -0.7919000000 	   -0.9573960000
H   	    2.0070320000 	    2.7135230000 	    0.4232760000
H   	   -0.1537950000 	    3.6057190000 	    0.5744280000
H   	   -2.3231380000 	    3.6095710000 	    0.8776940000
H   	   -3.2658520000 	    2.1028690000 	    0.8259830000
H   	   -2.9212170000 	    2.9509290000 	   -0.6664380000
H   	   -3.0413100000 	   -3.2836590000 	   -0.0046600000
H   	   -3.8674950000 	   -2.0987540000 	   -1.0497240000
H   	   -4.0481510000 	   -2.1577570000 	    2.0184830000
H   	   -5.3068680000 	   -2.7598000000 	    0.9209060000
H   	   -4.9080540000 	   -1.0299310000 	    0.9383070000
