50
tauto -1319.66931873
C   	    3.4090290000 	    4.2357820000 	   -0.3090330000
C   	    3.9589030000 	    2.9327920000 	   -0.8576430000
O   	    2.9073200000 	    1.9571240000 	   -0.9767990000
C   	    2.5398120000 	    1.3494310000 	    0.1598520000
C   	    1.2670070000 	    0.5866980000 	   -0.0384940000
C   	    1.2100960000 	   -0.7676840000 	    0.0254270000
C   	    2.3811020000 	   -1.6695360000 	    0.1668400000
C   	    3.5297940000 	   -1.4609100000 	   -0.6002130000
C   	    4.6138110000 	   -2.3220300000 	   -0.4807810000
C   	    4.5605320000 	   -3.3984400000 	    0.4004040000
C   	    3.4188520000 	   -3.6113770000 	    1.1669170000
C   	    2.3323180000 	   -2.7519260000 	    1.0497240000
N   	   -0.0073300000 	   -1.3965190000 	   -0.0644770000
C   	   -1.1984950000 	   -0.7279980000 	   -0.2295800000
C   	   -2.3939730000 	   -1.6113240000 	   -0.2870300000
C   	   -2.5448330000 	   -2.6205490000 	    0.6709790000
C   	   -3.6363430000 	   -3.4793170000 	    0.6219600000
C   	   -4.5835510000 	   -3.3410680000 	   -0.3887520000
C   	   -4.4367460000 	   -2.3402490000 	   -1.3443820000
C   	   -3.3479260000 	   -1.4756990000 	   -1.2991010000
C   	   -1.1933810000 	    0.6295090000 	   -0.2850990000
C   	   -2.4391120000 	    1.4531780000 	   -0.4106850000
O   	   -2.7068280000 	    2.0850280000 	    0.7321030000
C   	   -3.7975830000 	    3.0198950000 	    0.6815040000
C   	   -3.9006420000 	    3.6612470000 	    2.0477280000
O   	   -3.1065080000 	    1.5591570000 	   -1.4150360000
C   	    0.0564910000 	    1.3974000000 	   -0.2065860000
O   	    0.0797410000 	    2.6236370000 	   -0.2531280000
O   	    3.1419920000 	    1.4220880000 	    1.2037230000
H   	    4.1867560000 	    5.0068200000 	   -0.3222360000
H   	    3.0674960000 	    4.1016430000 	    0.7206120000
H   	    2.5608560000 	    4.5719030000 	   -0.9117190000
H   	    4.7506060000 	    2.5284150000 	   -0.2209660000
H   	    4.3359890000 	    3.0502300000 	   -1.8762760000
H   	    3.5658780000 	   -0.6271600000 	   -1.2971690000
H   	    5.5027590000 	   -2.1537630000 	   -1.0824790000
H   	    5.4098080000 	   -4.0703510000 	    0.4913990000
H   	    3.3768520000 	   -4.4423830000 	    1.8658270000
H   	    1.4524730000 	   -2.9038480000 	    1.6720260000
H   	   -0.0147240000 	   -2.4019740000 	   -0.1628560000
H   	   -1.8170450000 	   -2.7152460000 	    1.4747470000
H   	   -3.7502720000 	   -4.2519960000 	    1.3775890000
H   	   -5.4370040000 	   -4.0128850000 	   -0.4293580000
H   	   -5.1735880000 	   -2.2303730000 	   -2.1354060000
H   	   -3.2359690000 	   -0.6892090000 	   -2.0382830000
H   	   -4.7111460000 	    2.4832130000 	    0.4055940000
H   	   -3.5892780000 	    3.7534900000 	   -0.1032950000
H   	   -4.1026980000 	    2.9089730000 	    2.8160920000
H   	   -4.7147330000 	    4.3930000000 	    2.0557460000
H   	   -2.9684030000 	    4.1739100000 	    2.3011050000
