11
tauto -339.417414968
O   	   -2.2635250000 	    0.1292540000 	   -0.0001220000
C   	   -0.9166280000 	    0.0586350000 	    0.0000570000
C   	   -0.2096670000 	   -1.1504150000 	    0.0000280000
N   	    1.1136720000 	   -1.2239630000 	   -0.0000150000
N   	    1.8421410000 	   -0.1181420000 	   -0.0000080000
C   	    1.2161930000 	    1.0585350000 	   -0.0000670000
C   	   -0.1651200000 	    1.2184080000 	    0.0000660000
H   	   -2.6344580000 	   -0.7636610000 	    0.0003940000
H   	   -0.7332110000 	   -2.1067130000 	    0.0000260000
H   	    1.8734610000 	    1.9245870000 	    0.0000410000
H   	   -0.6369460000 	    2.1955150000 	    0.0001740000
