17
tauto -493.054264106
O   	    1.7050320000 	   -2.0494500000 	    0.0001150000
C   	    1.3594320000 	   -0.7514820000 	   -0.0000400000
C   	    2.2585060000 	    0.2883340000 	    0.0000620000
C   	    1.7721890000 	    1.6149710000 	   -0.0000330000
N   	    0.5061530000 	    1.9521640000 	   -0.0000510000
C   	   -0.3943220000 	    0.9271130000 	   -0.0000200000
C   	   -1.7793790000 	    1.2327950000 	    0.0000150000
C   	   -2.6873290000 	    0.2109490000 	    0.0000620000
C   	   -2.2114650000 	   -1.1244250000 	   -0.0000260000
N   	   -0.9430830000 	   -1.4530210000 	   -0.0000850000
C   	   -0.0379020000 	   -0.4406280000 	   -0.0000450000
H   	    2.6695130000 	   -2.1150060000 	   -0.0004970000
H   	    3.3306020000 	    0.1042370000 	    0.0002790000
H   	    2.4909150000 	    2.4343400000 	    0.0000730000
H   	   -2.0708880000 	    2.2792820000 	    0.0000570000
H   	   -3.7566040000 	    0.4021010000 	    0.0002290000
H   	   -2.9236650000 	   -1.9491100000 	    0.0000530000
