48
tauto -1351.75635485
C   	   -4.0635160000 	   -3.9085950000 	   -0.4189830000
C   	   -4.2496180000 	   -2.6508190000 	    0.4089350000
O   	   -3.0120410000 	   -1.9354740000 	    0.5495650000
C   	   -2.6677070000 	   -1.1665740000 	   -0.4871990000
C   	   -1.3274270000 	   -0.5233790000 	   -0.2570520000
C   	   -1.1398970000 	    0.8342190000 	   -0.0327930000
C   	   -2.2893610000 	    1.7637170000 	    0.1788040000
N   	   -3.4483570000 	    1.2104410000 	    0.5448780000
C   	   -4.4881860000 	    2.0152480000 	    0.7488830000
C   	   -4.4280190000 	    3.3977230000 	    0.6059850000
C   	   -3.2168000000 	    3.9671130000 	    0.2300730000
C   	   -2.1238220000 	    3.1393760000 	    0.0134940000
N   	    0.0750560000 	    1.4046590000 	   -0.0060540000
C   	    1.1554120000 	    0.6429350000 	   -0.1160240000
C   	    2.4436790000 	    1.3944280000 	   -0.2322980000
N   	    3.3436720000 	    0.9128890000 	   -1.0955670000
C   	    4.4745730000 	    1.5973100000 	   -1.2552440000
C   	    4.7665370000 	    2.7747790000 	   -0.5733200000
C   	    3.8206440000 	    3.2711980000 	    0.3158290000
C   	    2.6317200000 	    2.5744810000 	    0.4859960000
C   	    1.0874070000 	   -0.7572970000 	   -0.2095810000
C   	    2.2455790000 	   -1.6755230000 	   -0.1053720000
O   	    3.2212390000 	   -1.2272760000 	    0.6724330000
C   	    4.4097520000 	   -2.0371160000 	    0.7564300000
C   	    4.2638920000 	   -3.1117860000 	    1.8160620000
O   	    2.2531360000 	   -2.7912440000 	   -0.6124140000
C   	   -0.1877040000 	   -1.3351590000 	   -0.3608620000
O   	   -0.3706790000 	   -2.6350930000 	   -0.5917190000
O   	   -3.2998760000 	   -1.0498220000 	   -1.5083620000
H   	   -4.9945340000 	   -4.4854720000 	   -0.4392950000
H   	   -3.2739520000 	   -4.5337810000 	    0.0087470000
H   	   -3.7911620000 	   -3.6506040000 	   -1.4455070000
H   	   -4.5446180000 	   -2.8846160000 	    1.4347540000
H   	   -4.9917940000 	   -1.9835240000 	   -0.0380600000
H   	   -5.4162740000 	    1.5289860000 	    1.0445210000
H   	   -5.3094700000 	    4.0061160000 	    0.7852190000
H   	   -3.1245390000 	    5.0427980000 	    0.1040830000
H   	   -1.1540580000 	    3.5269320000 	   -0.2778400000
H   	    5.1830440000 	    1.1852660000 	   -1.9724430000
H   	    5.7086340000 	    3.2875710000 	   -0.7431260000
H   	    4.0043470000 	    4.1904140000 	    0.8661730000
H   	    1.8514840000 	    2.9237240000 	    1.1538760000
H   	    5.1980230000 	   -1.3239760000 	    1.0081260000
H   	    4.6109180000 	   -2.4683660000 	   -0.2271730000
H   	    4.0106170000 	   -2.6673800000 	    2.7833030000
H   	    5.2074170000 	   -3.6570800000 	    1.9234220000
H   	    3.4832500000 	   -3.8228300000 	    1.5340760000
H   	    0.5129930000 	   -3.0365050000 	   -0.7522550000
