30
tauto -817.484894577
O   	    0.0606240000 	    4.0148850000 	    0.0083590000
C   	   -0.0006290000 	    2.6656730000 	    0.0041050000
C   	   -1.1994730000 	    1.9590440000 	    0.0299900000
C   	   -1.1462850000 	    0.5653320000 	    0.0121670000
C   	   -2.3939580000 	   -0.2515460000 	    0.0289140000
C   	   -2.3711520000 	   -1.5553330000 	    0.5231430000
C   	   -3.5510080000 	   -2.2885020000 	    0.5387950000
N   	   -4.7237380000 	   -1.8272640000 	    0.0974700000
C   	   -4.7338920000 	   -0.5851830000 	   -0.3861070000
C   	   -3.6128220000 	    0.2357800000 	   -0.4419720000
N   	    0.0019890000 	   -0.1136300000 	   -0.0013510000
C   	    1.1517030000 	    0.5723950000 	   -0.0132630000
C   	    2.4003870000 	   -0.2428970000 	   -0.0320180000
C   	    3.6238330000 	    0.2556640000 	    0.4147240000
C   	    4.7455970000 	   -0.5643040000 	    0.3599930000
N   	    4.7323480000 	   -1.8155740000 	   -0.0998800000
C   	    3.5555320000 	   -2.2867230000 	   -0.5188670000
C   	    2.3745300000 	   -1.5554330000 	   -0.5025650000
C   	    1.2007220000 	    1.9623840000 	   -0.0263610000
H   	   -0.8344630000 	    4.3787450000 	    0.0231990000
H   	   -2.1511050000 	    2.4817890000 	    0.0827660000
H   	   -1.4412880000 	   -1.9787670000 	    0.8881220000
H   	   -3.5560240000 	   -3.3049940000 	    0.9292060000
H   	   -5.6923990000 	   -0.2233850000 	   -0.7555650000
H   	   -3.6981390000 	    1.2287720000 	   -0.8747870000
H   	    3.7126820000 	    1.2577040000 	    0.8248470000
H   	    5.7078830000 	   -0.1934500000 	    0.7100380000
H   	    3.5577820000 	   -3.3103050000 	   -0.8905390000
H   	    1.4414840000 	   -1.9873500000 	   -0.8489130000
H   	    2.1358830000 	    2.5093250000 	   -0.0729690000
