20
tauto -536.187042119
O   	    3.6134390000 	   -1.2371830000 	   -0.0490790000
C   	    2.7328630000 	   -0.4293650000 	   -0.0183960000
O   	    1.4069340000 	   -0.7938940000 	   -0.0365050000
C   	    0.6252830000 	    0.3563500000 	    0.0083140000
C   	   -0.8255730000 	    0.1271470000 	    0.0001300000
C   	   -1.3351960000 	   -1.1726040000 	    0.0418640000
C   	   -2.7099750000 	   -1.3841510000 	    0.0419190000
C   	   -3.5857190000 	   -0.3046480000 	   -0.0004900000
C   	   -3.0815910000 	    0.9938750000 	   -0.0451770000
C   	   -1.7108710000 	    1.2092230000 	   -0.0460040000
C   	    1.3578500000 	    1.4713460000 	    0.0564880000
C   	    2.8042250000 	    1.0883220000 	    0.0423590000
H   	   -0.6481860000 	   -2.0123600000 	    0.0740220000
H   	   -3.0971410000 	   -2.3990940000 	    0.0756520000
H   	   -4.6595870000 	   -0.4722120000 	   -0.0008000000
H   	   -3.7608260000 	    1.8415120000 	   -0.0816320000
H   	   -1.3247130000 	    2.2247660000 	   -0.0878780000
H   	    0.9763530000 	    2.4822990000 	    0.1061270000
H   	    3.3604740000 	    1.3901770000 	    0.9375420000
H   	    3.3628720000 	    1.4605490000 	   -0.8244020000
