15
tauto -379.739698169
N   	   -3.4049920000 	    0.7470350000 	   -0.0005560000
C   	   -2.5540460000 	   -0.0360810000 	   -0.0001250000
C   	   -1.4622130000 	   -1.0122860000 	    0.0004790000
C   	   -0.0728650000 	   -0.3952840000 	    0.0001430000
N   	    0.9121180000 	   -1.2970380000 	   -0.0001590000
C   	    2.1647440000 	   -0.8447810000 	   -0.0002870000
C   	    2.4968890000 	    0.5068060000 	   -0.0001560000
C   	    1.4636720000 	    1.4338620000 	    0.0001690000
C   	    0.1490920000 	    0.9784450000 	    0.0003220000
H   	   -1.5648210000 	   -1.6601430000 	   -0.8765820000
H   	   -1.5648800000 	   -1.6590260000 	    0.8783730000
H   	    2.9439520000 	   -1.6051730000 	   -0.0005910000
H   	    3.5374240000 	    0.8167070000 	   -0.0003140000
H   	    1.6726880000 	    2.5004460000 	    0.0002990000
H   	   -0.6858870000 	    1.6731180000 	    0.0005480000
