30
tauto -800.48118607
C   	    5.0067430000 	   -0.3098680000 	    0.1807840000
C   	    3.5128850000 	   -0.1752470000 	    0.0499700000
N   	    2.7904860000 	   -1.2717530000 	    0.1327880000
C   	    1.4382720000 	   -1.1441460000 	    0.0660270000
C   	    0.6915160000 	   -2.3636590000 	    0.0614560000
C   	   -0.6595010000 	   -2.3565060000 	   -0.0500630000
C   	    2.9386660000 	    1.0875740000 	   -0.1994990000
C   	    1.5706860000 	    1.2197680000 	   -0.3001090000
O   	    0.9974560000 	    2.3539730000 	   -0.7324650000
C   	    0.7439740000 	    0.0827670000 	   -0.0370040000
C   	   -0.6973690000 	    0.0984660000 	    0.0241910000
C   	   -1.3653770000 	   -1.1170310000 	   -0.0564880000
N   	   -2.7440840000 	   -1.1614030000 	   -0.1017210000
C   	   -3.5219940000 	   -0.0319010000 	   -0.0642360000
C   	   -4.9975700000 	   -0.2481500000 	   -0.2281410000
C   	   -2.9372090000 	    1.1699360000 	    0.1314410000
C   	   -1.5015320000 	    1.3042430000 	    0.3777140000
O   	   -1.0284100000 	    2.3042080000 	    0.8992290000
H   	    5.2714110000 	   -1.3657660000 	    0.2626820000
H   	    5.3671430000 	    0.2147230000 	    1.0731850000
H   	    5.5211590000 	    0.1223480000 	   -0.6848930000
H   	    1.2576260000 	   -3.2883280000 	    0.1177970000
H   	   -1.2208280000 	   -3.2882290000 	   -0.0906780000
H   	    3.5828230000 	    1.9478810000 	   -0.3753200000
H   	    1.6761160000 	    3.0353150000 	   -0.8267540000
H   	   -3.1892270000 	   -2.0641780000 	   -0.1671720000
H   	   -5.2212730000 	   -0.6949180000 	   -1.2038870000
H   	   -5.5310540000 	    0.7012670000 	   -0.1543990000
H   	   -5.3852980000 	   -0.9195220000 	    0.5473120000
H   	   -3.5389280000 	    2.0685740000 	    0.2142960000
