24
tauto -518.514179883
C   	    0.0150010000 	   -0.6151200000 	    1.3796920000
C   	   -1.2372020000 	   -0.2379690000 	    0.6101080000
C   	   -1.4814530000 	    1.0978010000 	    0.2794270000
C   	   -2.6227400000 	    1.4524790000 	   -0.4297010000
C   	   -3.5375050000 	    0.4766910000 	   -0.8212010000
C   	   -3.3007540000 	   -0.8547010000 	   -0.4991440000
C   	   -2.1557990000 	   -1.2074780000 	    0.2121510000
C   	    1.2744990000 	   -0.3105200000 	    0.5985970000
N   	    1.8075370000 	    0.9034420000 	    0.7711250000
C   	    2.8995560000 	    1.2115400000 	    0.0679650000
C   	    3.5139770000 	    0.3452610000 	   -0.8277290000
C   	    2.9540060000 	   -0.9154990000 	   -1.0055570000
C   	    1.8170570000 	   -1.2479190000 	   -0.2831950000
H   	   -0.0181750000 	   -1.6815220000 	    1.6304530000
H   	    0.0578070000 	   -0.0524670000 	    2.3179370000
H   	   -0.7594180000 	    1.8548850000 	    0.5786290000
H   	   -2.8011440000 	    2.4960960000 	   -0.6773660000
H   	   -4.4310170000 	    0.7550140000 	   -1.3743950000
H   	   -4.0083270000 	   -1.6234430000 	   -0.8002030000
H   	   -1.9769770000 	   -2.2515900000 	    0.4639990000
H   	    3.3057280000 	    2.2081160000 	    0.2359000000
H   	    4.4046340000 	    0.6523150000 	   -1.3676770000
H   	    3.3970360000 	   -1.6282880000 	   -1.6967380000
H   	    1.3452370000 	   -2.2206030000 	   -0.3968920000
