16
tauto -491.971893576
O   	    2.4523180000 	    1.0847000000 	   -0.5842710000
N   	    2.1285840000 	    0.0001150000 	   -0.1401980000
C   	    1.2002420000 	   -0.0017280000 	    1.0422040000
C   	   -0.2190560000 	   -0.0008420000 	    0.5381640000
C   	   -0.8840900000 	   -1.1953000000 	    0.2780910000
C   	   -2.1841270000 	   -1.1374230000 	   -0.2136710000
N   	   -2.8351920000 	    0.0008630000 	   -0.4562360000
C   	   -2.1828810000 	    1.1383180000 	   -0.2130060000
C   	   -0.8828000000 	    1.1945050000 	    0.2787850000
O   	    2.4539260000 	   -1.0830670000 	   -0.5864800000
H   	    1.4348950000 	    0.8966640000 	    1.6134720000
H   	    1.4347910000 	   -0.9019180000 	    1.6106630000
H   	   -0.4003250000 	   -2.1533100000 	    0.4487130000
H   	   -2.7305210000 	   -2.0553100000 	   -0.4231730000
H   	   -2.7282960000 	    2.0569100000 	   -0.4219590000
H   	   -0.3979660000 	    2.1518800000 	    0.4499240000
