23
tauto -554.65461312
C   	   -4.3041330000 	    0.5293770000 	    0.2697150000
C   	   -3.4927800000 	   -0.3095370000 	   -0.6990940000
O   	   -2.3263620000 	   -0.8631410000 	   -0.0631960000
C   	   -1.2673190000 	   -0.0460630000 	    0.0442390000
C   	   -0.1388250000 	   -0.7345940000 	    0.7859390000
C   	    1.2471650000 	   -0.3041970000 	    0.3638760000
N   	    2.0708790000 	   -1.2935620000 	    0.0079500000
C   	    3.3168290000 	   -0.9710240000 	   -0.3460790000
C   	    3.8013390000 	    0.3304590000 	   -0.3653280000
C   	    2.9359720000 	    1.3551390000 	    0.0037790000
C   	    1.6377800000 	    1.0368210000 	    0.3760010000
O   	   -1.2494840000 	    1.0908090000 	   -0.3681730000
H   	   -5.2238690000 	    0.8734110000 	   -0.2148620000
H   	   -3.7334930000 	    1.4067830000 	    0.5856450000
H   	   -4.5781240000 	   -0.0562180000 	    1.1528110000
H   	   -3.1761310000 	    0.2796640000 	   -1.5636090000
H   	   -4.0531520000 	   -1.1825890000 	   -1.0412020000
H   	   -0.2258050000 	   -1.8156840000 	    0.6652320000
H   	   -0.2926880000 	   -0.5140530000 	    1.8513600000
H   	    3.9587050000 	   -1.8036870000 	   -0.6303910000
H   	    4.8263790000 	    0.5320610000 	   -0.6619670000
H   	    3.2681800000 	    2.3903080000 	    0.0012210000
H   	    0.9244610000 	    1.8053070000 	    0.6527790000
