21
tauto -515.463233317
C   	   -2.0432350000 	    0.2103840000 	    1.4762490000
C   	   -1.5071250000 	    0.1400990000 	    0.0355960000
C   	   -2.5138340000 	   -0.5790350000 	   -0.8624510000
C   	   -1.2425240000 	    1.5579150000 	   -0.4983340000
C   	   -0.2009930000 	   -0.6458420000 	    0.0396030000
C   	    0.9710460000 	   -0.1275090000 	    0.8918410000
N   	    2.1318560000 	    0.1675970000 	   -0.0017570000
O   	    3.2321480000 	   -0.1832620000 	    0.3699760000
O   	    1.8862460000 	    0.7794110000 	   -1.0266970000
O   	   -0.0330320000 	   -1.6726570000 	   -0.5740840000
H   	   -2.9932820000 	    0.7557320000 	    1.4840700000
H   	   -1.3610150000 	    0.7378300000 	    2.1534720000
H   	   -2.2275640000 	   -0.7901570000 	    1.8838500000
H   	   -3.4627910000 	   -0.0316190000 	   -0.8705190000
H   	   -2.7019450000 	   -1.5973730000 	   -0.5093930000
H   	   -2.1431470000 	   -0.6486640000 	   -1.8891430000
H   	   -2.1869180000 	    2.1126850000 	   -0.5276190000
H   	   -0.8239730000 	    1.5295260000 	   -1.5087670000
H   	   -0.5472620000 	    2.1216270000 	    0.1335180000
H   	    1.2976760000 	   -0.8929380000 	    1.5955130000
H   	    0.7643320000 	    0.8061620000 	    1.4187360000
