17
tauto -360.052916016
C   	   -0.2850380000 	    1.6838930000 	   -0.0005420000
C   	   -0.1462640000 	    0.2306670000 	    0.3631770000
C   	   -1.3658870000 	   -0.5281720000 	    0.8395960000
C   	   -2.4593510000 	   -0.4866160000 	   -0.1409580000
N   	   -3.3116070000 	   -0.4262380000 	   -0.9206640000
N   	    0.9489940000 	   -0.4256150000 	    0.3369060000
N   	    2.0899110000 	    0.2399360000 	   -0.0144170000
C   	    3.1579050000 	   -0.6597670000 	   -0.4152770000
H   	   -1.2942800000 	    2.0534120000 	    0.1975130000
H   	   -0.0839150000 	    1.8518760000 	   -1.0675790000
H   	    0.4310010000 	    2.2882750000 	    0.5703830000
H   	   -1.7434190000 	   -0.1032230000 	    1.7790820000
H   	   -1.0835930000 	   -1.5673830000 	    1.0283540000
H   	    1.9393960000 	    0.9872870000 	   -0.6878500000
H   	    3.3437790000 	   -1.3637230000 	    0.3988150000
H   	    4.0647730000 	   -0.0715940000 	   -0.5822180000
H   	    2.9269810000 	   -1.2315370000 	   -1.3252570000
