19
tauto -365.133175486
C   	    0.1989960000 	    1.7792870000 	   -0.9261390000
C   	    0.0052210000 	    0.2772300000 	   -0.7285160000
C   	    1.1919120000 	   -0.3937290000 	   -0.0327450000
C   	    1.7073250000 	    0.2750130000 	    1.2139110000
N   	    1.7370880000 	   -1.4750550000 	   -0.4249090000
C   	   -1.2445140000 	   -0.0150110000 	    0.1148170000
C   	   -1.8643250000 	   -1.3830970000 	   -0.0528390000
O   	   -1.6857310000 	    0.8059420000 	    0.8888960000
H   	    1.1412500000 	    1.9861680000 	   -1.4436630000
H   	    0.1963670000 	    2.2989120000 	    0.0348480000
H   	   -0.6197890000 	    2.1919950000 	   -1.5232300000
H   	   -0.1230620000 	   -0.2185620000 	   -1.7005250000
H   	    2.2208640000 	    1.2100120000 	    0.9617070000
H   	    2.4132110000 	   -0.3893570000 	    1.7149640000
H   	    0.8865100000 	    0.5323190000 	    1.8929050000
H   	    1.2923720000 	   -1.8073970000 	   -1.2855540000
H   	   -1.0991770000 	   -2.1635450000 	    0.0240080000
H   	   -2.3161940000 	   -1.4641400000 	   -1.0487530000
H   	   -2.6338120000 	   -1.5367150000 	    0.7055610000
