17
tauto -360.052915804
C   	   -0.2847530000 	    1.6841120000 	   -0.0007340000
C   	   -0.1463400000 	    0.2308800000 	    0.3630590000
C   	   -1.3659650000 	   -0.5277580000 	    0.8396830000
C   	   -2.4594510000 	   -0.4866690000 	   -0.1408230000
N   	   -3.3117010000 	   -0.4267000000 	   -0.9205530000
N   	    0.9488590000 	   -0.4254630000 	    0.3367300000
N   	    2.0897300000 	    0.2396850000 	   -0.0148790000
C   	    3.1580130000 	   -0.6600300000 	   -0.4148120000
H   	   -1.2937390000 	    2.0540610000 	    0.1977930000
H   	   -0.0840270000 	    1.8519180000 	   -1.0678720000
H   	    0.4319060000 	    2.2881390000 	    0.5698130000
H   	   -1.7435430000 	   -0.1024810000 	    1.7790180000
H   	   -1.0836360000 	   -1.5668800000 	    1.0288970000
H   	    1.9395760000 	    0.9870110000 	   -0.6883840000
H   	    3.3444300000 	   -1.3628550000 	    0.4001280000
H   	    4.0645750000 	   -0.0716480000 	   -0.5827080000
H   	    2.9272080000 	   -1.2331280000 	   -1.3240080000
