22
tauto -607.864486316
C   	    2.4747800000 	    1.2525150000 	   -0.6527710000
C   	    1.5957000000 	    0.0000170000 	   -0.6403470000
C   	    2.4734950000 	   -1.2533760000 	   -0.6536330000
C   	    0.6307390000 	    0.0001720000 	    0.5932480000
C   	   -0.2052090000 	   -1.2638880000 	    0.5878690000
N   	   -1.4111980000 	   -1.1668450000 	   -0.0966510000
C   	   -2.0840070000 	   -0.0000190000 	   -0.4344650000
N   	   -1.4113340000 	    1.1669080000 	   -0.0967470000
O   	   -3.1737330000 	   -0.0000980000 	   -0.9551650000
O   	    0.1560360000 	   -2.3145350000 	    1.0660400000
C   	   -0.2051830000 	    1.2642510000 	    0.5874270000
O   	    0.1561550000 	    2.3151280000 	    1.0650380000
H   	    3.1491160000 	    1.2166980000 	   -1.5147750000
H   	    3.0890070000 	    1.2999260000 	    0.2542020000
H   	    1.8968400000 	    2.1778310000 	   -0.7092080000
H   	    0.9683430000 	    0.0006340000 	   -1.5438240000
H   	    3.0868320000 	   -1.3027020000 	    0.2538300000
H   	    3.1486230000 	   -1.2171080000 	   -1.5149970000
H   	    1.8946570000 	   -2.1780250000 	   -0.7118810000
H   	    1.2329630000 	    0.0002940000 	    1.5061250000
H   	   -1.9490470000 	   -2.0187350000 	   -0.1982700000
H   	   -1.9491630000 	    2.0187700000 	   -0.1987010000
