19
tauto -365.111757306
C   	   -0.0569530000 	    1.9553090000 	   -0.3379720000
C   	    0.0289930000 	    0.4591860000 	   -0.1512540000
C   	   -1.2671030000 	   -0.2779210000 	   -0.1227340000
C   	   -2.3930520000 	    0.3384400000 	    0.6692040000
N   	   -1.4941990000 	   -1.3967840000 	   -0.7085570000
C   	    1.1800020000 	   -0.2110160000 	    0.0665670000
C   	    2.5667770000 	    0.3554330000 	    0.1036160000
O   	    1.2434610000 	   -1.5470400000 	    0.3317150000
H   	   -0.6684100000 	    2.2062140000 	   -1.2132750000
H   	    0.9217100000 	    2.4156470000 	   -0.4850680000
H   	   -0.5196460000 	    2.4430920000 	    0.5294490000
H   	   -2.0712870000 	    0.5864200000 	    1.6871850000
H   	   -3.2328800000 	   -0.3581060000 	    0.7033750000
H   	   -2.7273340000 	    1.2700930000 	    0.1979040000
H   	   -0.6838870000 	   -1.6604550000 	   -1.2770860000
H   	    2.6107880000 	    1.4043880000 	   -0.1873510000
H   	    3.2074050000 	   -0.2246630000 	   -0.5686000000
H   	    2.9790160000 	    0.2498440000 	    1.1128760000
H   	    0.3442430000 	   -1.8952490000 	    0.4422030000
