26
tauto -735.410721862
C   	    0.1155640000 	    2.9928420000 	    0.7747360000
C   	    0.1430730000 	    2.1647630000 	   -0.5157610000
C   	   -0.0037760000 	    0.6897290000 	   -0.2376870000
N   	   -1.2538580000 	    0.2243560000 	   -0.1561830000
C   	   -1.5758630000 	   -1.1553480000 	    0.0820400000
N   	   -0.5679100000 	   -2.0570710000 	    0.1785380000
C   	    0.6734520000 	   -1.6454150000 	    0.0968390000
N   	    1.6254600000 	   -2.5860750000 	    0.2258270000
N   	   -2.8269880000 	   -1.3948860000 	    0.1640620000
C   	   -3.5429000000 	   -0.1354980000 	    0.0333380000
C   	   -2.5091160000 	    0.9431970000 	   -0.3781030000
C   	    1.0259100000 	   -0.2329140000 	   -0.0746160000
N   	    2.3913020000 	    0.2021960000 	   -0.0855050000
O   	    2.6471440000 	    1.3720520000 	    0.1742900000
O   	    3.2732550000 	   -0.6137830000 	   -0.3510180000
H   	    0.1763590000 	    4.0579510000 	    0.5336140000
H   	    0.9693550000 	    2.7321330000 	    1.4036650000
H   	   -0.8042180000 	    2.8260530000 	    1.3459900000
H   	    1.0771310000 	    2.3491320000 	   -1.0443700000
H   	   -0.6783720000 	    2.4650740000 	   -1.1742660000
H   	    1.2956860000 	   -3.5360880000 	    0.3004620000
H   	    2.5845440000 	   -2.3759210000 	    0.0014460000
H   	   -4.0182990000 	    0.1197120000 	    0.9888030000
H   	   -4.3406780000 	   -0.2230700000 	   -0.7110110000
H   	   -2.5603330000 	    1.8485440000 	    0.2317520000
H   	   -2.5984590000 	    1.2225580000 	   -1.4341700000
