25
tauto -751.448646873
C   	    0.9057640000 	    3.0506910000 	    0.4225320000
N   	   -0.0322240000 	    2.0681680000 	   -0.0982660000
C   	    0.0466770000 	    0.7318370000 	   -0.0192690000
N   	    1.2436730000 	    0.1236290000 	    0.0936930000
C   	    1.3838860000 	   -1.3149720000 	    0.0427500000
N   	    0.2885180000 	   -2.0988840000 	    0.1363770000
C   	   -0.9026710000 	   -1.5508360000 	    0.0905300000
N   	   -1.9347630000 	   -2.4043040000 	    0.1788830000
N   	    2.5866770000 	   -1.7172730000 	   -0.0948440000
C   	    3.4609560000 	   -0.5621880000 	   -0.1398020000
C   	    2.5601280000 	    0.6941680000 	   -0.2128460000
C   	   -1.1146000000 	   -0.1086030000 	   -0.0464170000
N   	   -2.4082600000 	    0.4461760000 	   -0.1157720000
O   	   -2.5615640000 	    1.6701460000 	   -0.2761160000
O   	   -3.3983350000 	   -0.2822100000 	   -0.0320120000
H   	    0.3520590000 	    3.9828820000 	    0.5487670000
H   	    1.7376620000 	    3.2433550000 	   -0.2594740000
H   	    1.2964650000 	    2.7548360000 	    1.4011070000
H   	   -0.9977530000 	    2.3697300000 	   -0.2114940000
H   	   -1.6927840000 	   -3.3797310000 	    0.2559690000
H   	   -2.8858110000 	   -2.0765570000 	    0.1486650000
H   	    4.1327120000 	   -0.6208880000 	   -1.0026750000
H   	    4.0915260000 	   -0.5358770000 	    0.7582040000
H   	    2.5395350000 	    1.1455140000 	   -1.2120070000
H   	    2.8594060000 	    1.4500880000 	    0.5126070000
