24
tauto -704.846872176
O   	    2.9061150000 	    2.3282970000 	    0.2550190000
C   	    2.8746140000 	    1.1205290000 	    0.1267180000
C   	    4.1005160000 	    0.2043660000 	    0.0460250000
O   	    3.6037900000 	   -1.1315200000 	   -0.0997400000
C   	    2.2463450000 	   -1.1396320000 	   -0.1173500000
O   	    1.6063820000 	   -2.1675370000 	   -0.2242860000
C   	    1.7486650000 	    0.2201330000 	    0.0151850000
C   	    0.4211330000 	    0.5519240000 	    0.0459570000
N   	   -0.5532850000 	   -0.3525200000 	   -0.0549170000
C   	   -1.9445760000 	   -0.1099220000 	   -0.0325100000
C   	   -2.7885430000 	   -1.1809270000 	    0.2624260000
C   	   -4.1637850000 	   -0.9900620000 	    0.2958740000
C   	   -4.7063450000 	    0.2665840000 	    0.0431550000
C   	   -3.8600050000 	    1.3292050000 	   -0.2576410000
C   	   -2.4824760000 	    1.1472840000 	   -0.3071650000
H   	    4.7022030000 	    0.2677540000 	    0.9574510000
H   	    4.7255200000 	    0.4538000000 	   -0.8165020000
H   	    0.1394860000 	    1.5955040000 	    0.1714980000
H   	   -0.2275490000 	   -1.3186600000 	   -0.1255460000
H   	   -2.3618960000 	   -2.1589580000 	    0.4730180000
H   	   -4.8134380000 	   -1.8295760000 	    0.5278580000
H   	   -5.7817550000 	    0.4157050000 	    0.0742100000
H   	   -4.2732290000 	    2.3114640000 	   -0.4700770000
H   	   -1.8399030000 	    1.9798000000 	   -0.5794780000
