37
tauto -971.295879599
C   	   -5.8033890000 	   -0.4498890000 	    0.1606990000
N   	   -4.3859030000 	   -0.1642990000 	    0.2139970000
C   	   -3.4290460000 	   -0.9874560000 	   -0.1940210000
C   	   -2.0953090000 	   -0.6783570000 	   -0.1294080000
C   	   -0.9979240000 	   -1.5182300000 	   -0.5623290000
N   	    0.1690610000 	   -0.7434470000 	   -0.3566250000
C   	    1.3912450000 	   -1.3591150000 	    0.0436970000
C   	    1.8980790000 	   -2.4000050000 	   -0.7366440000
C   	    3.0873470000 	   -3.0158610000 	   -0.3658410000
C   	    3.7873450000 	   -2.5904860000 	    0.7595090000
C   	    3.2819180000 	   -1.5428680000 	    1.5218440000
C   	    2.0848160000 	   -0.9261020000 	    1.1735380000
N   	   -0.1762400000 	    0.4830970000 	    0.2632830000
C   	    0.6131300000 	    1.6288440000 	   -0.0537330000
C   	    0.4762510000 	    2.7751820000 	    0.7309010000
C   	    1.2338000000 	    3.9016040000 	    0.4317480000
C   	    2.1405040000 	    3.8882150000 	   -0.6240780000
C   	    2.2805620000 	    2.7354420000 	   -1.3895030000
C   	    1.5190600000 	    1.6050280000 	   -1.1135470000
O   	   -1.0069500000 	   -2.6570420000 	   -0.9893300000
C   	   -1.5717620000 	    0.5701300000 	    0.3634710000
O   	   -2.1936830000 	    1.5500510000 	    0.7661230000
H   	   -6.3230520000 	    0.2829770000 	   -0.4646030000
H   	   -6.2418580000 	   -0.4332850000 	    1.1634940000
H   	   -5.9534290000 	   -1.4434860000 	   -0.2690930000
H   	   -4.0575560000 	    0.7336920000 	    0.5703630000
H   	   -3.7345940000 	   -1.9511470000 	   -0.6017660000
H   	    1.3477720000 	   -2.7287570000 	   -1.6100440000
H   	    3.4729080000 	   -3.8317190000 	   -0.9718780000
H   	    4.7225070000 	   -3.0692110000 	    1.0373030000
H   	    3.8187640000 	   -1.1986570000 	    2.4021230000
H   	    1.6908010000 	   -0.1127600000 	    1.7741260000
H   	   -0.2331930000 	    2.7806420000 	    1.5498820000
H   	    1.1171550000 	    4.7955790000 	    1.0389880000
H   	    2.7367360000 	    4.7692520000 	   -0.8457780000
H   	    2.9876400000 	    2.7102360000 	   -2.2146270000
H   	    1.6262680000 	    0.7086600000 	   -1.7152290000
