21
tauto -478.441263164
C   	    1.8874750000 	   -0.3747070000 	    1.4872700000
C   	    2.2472760000 	   -0.0190580000 	    0.0625560000
C   	    1.2420180000 	   -0.4027740000 	   -1.0223330000
C   	   -0.1911400000 	   -0.2544450000 	   -0.5971550000
N   	   -0.9577030000 	   -1.2561160000 	   -0.4720440000
C   	   -2.3139460000 	   -1.0484500000 	    0.0182920000
C   	   -2.4856210000 	    0.2764160000 	    0.7563340000
C   	   -1.8445530000 	    1.3679370000 	   -0.0805000000
O   	   -0.4758710000 	    1.0547490000 	   -0.3544780000
O   	    3.2933960000 	    0.5153950000 	   -0.2278850000
H   	    1.4897700000 	   -1.3934010000 	    1.5493980000
H   	    1.0992650000 	    0.3037450000 	    1.8352450000
H   	    2.7654640000 	   -0.2637090000 	    2.1256250000
H   	    1.4024280000 	   -1.4556810000 	   -1.2767780000
H   	    1.4543610000 	    0.2122750000 	   -1.9010620000
H   	   -2.5659200000 	   -1.8925620000 	    0.6691400000
H   	   -3.0017000000 	   -1.1012240000 	   -0.8365190000
H   	   -1.9879700000 	    0.2305950000 	    1.7328150000
H   	   -3.5427120000 	    0.5032040000 	    0.9314970000
H   	   -1.8287580000 	    2.3362270000 	    0.4250170000
H   	   -2.3695640000 	    1.4826730000 	   -1.0379370000
