21
tauto -478.43621684
C   	    2.4552340000 	    0.4350620000 	   -0.5886830000
C   	    1.4696800000 	   -0.5774030000 	   -0.0547250000
C   	    0.3214950000 	   -0.0512610000 	    0.8327550000
C   	   -0.7326050000 	   -1.1341220000 	    1.0785020000
C   	   -1.5618210000 	   -1.3452970000 	   -0.1861620000
C   	   -2.1304440000 	   -0.0172390000 	   -0.6538880000
O   	   -1.1186310000 	    0.9819430000 	   -0.8315350000
C   	   -0.2818840000 	    1.2034000000 	    0.2160820000
N   	   -0.0063550000 	    2.4056290000 	    0.4998040000
O   	    1.5786910000 	   -1.7605900000 	   -0.2878170000
H   	    1.9733220000 	    1.0415330000 	   -1.3638630000
H   	    3.3119520000 	   -0.0877390000 	   -1.0166230000
H   	    2.7870210000 	    1.1245460000 	    0.1949510000
H   	    0.7919010000 	    0.2407730000 	    1.7821340000
H   	   -1.3844490000 	   -0.8187460000 	    1.9034790000
H   	   -0.2352870000 	   -2.0608020000 	    1.3760760000
H   	   -2.3859470000 	   -2.0432940000 	    0.0003990000
H   	   -0.9329150000 	   -1.7800460000 	   -0.9701510000
H   	   -2.8685530000 	    0.3635730000 	    0.0665970000
H   	   -2.6169890000 	   -0.1012300000 	   -1.6281420000
H   	    0.6860280000 	    2.4323730000 	    1.2480530000
