25
tauto -555.864908434
C   	    1.8847850000 	    1.7425300000 	    0.1068160000
C   	    1.3162660000 	    0.3544730000 	    0.0164530000
N   	    2.1764310000 	   -0.6592540000 	    0.0091990000
C   	    3.6229230000 	   -0.5835500000 	    0.0764040000
C   	   -0.0783790000 	    0.1000520000 	   -0.0533850000
C   	   -0.5646050000 	   -1.2728810000 	   -0.0976710000
C   	   -2.0613110000 	   -1.5304970000 	   -0.1376010000
C   	   -2.8757330000 	   -0.4225890000 	    0.5130750000
C   	   -2.5186220000 	    0.9033770000 	   -0.1409690000
O   	    0.1751130000 	   -2.2695760000 	   -0.1181340000
C   	   -1.0284650000 	    1.2214040000 	   -0.0998390000
O   	   -0.6947800000 	    2.4013960000 	   -0.1330650000
H   	    2.9665810000 	    1.7271770000 	    0.2456320000
H   	    1.4150270000 	    2.2899690000 	    0.9249580000
H   	    1.6374570000 	    2.3068730000 	   -0.7948840000
H   	    1.7234520000 	   -1.5786270000 	   -0.0534890000
H   	    4.0413820000 	   -0.0149000000 	   -0.7604260000
H   	    4.0097610000 	   -1.6027640000 	    0.0214160000
H   	    3.9678770000 	   -0.1382850000 	    1.0156610000
H   	   -2.2253720000 	   -2.5080630000 	    0.3246690000
H   	   -2.3448530000 	   -1.6288240000 	   -1.1958490000
H   	   -2.6550450000 	   -0.3804470000 	    1.5876540000
H   	   -3.9478920000 	   -0.6255130000 	    0.4157060000
H   	   -3.0324330000 	    1.7543800000 	    0.3148450000
H   	   -2.8147650000 	    0.8853210000 	   -1.2003790000
