15
tauto -341.87641877
C   	   -2.4639540000 	   -0.6661550000 	   -0.1888180000
C   	   -1.2115500000 	    0.1461260000 	    0.0309780000
C   	   -0.0144550000 	   -0.6006770000 	    0.6116620000
C   	    1.3400790000 	   -0.2058040000 	    0.0385820000
N   	    1.6297890000 	    1.1331130000 	    0.1551360000
N   	    2.1985870000 	   -1.0201970000 	   -0.4416050000
O   	   -1.1711010000 	    1.3348960000 	   -0.2153610000
H   	   -2.2839180000 	   -1.4163370000 	   -0.9679500000
H   	   -3.2832300000 	   -0.0120530000 	   -0.4912050000
H   	   -2.7327100000 	   -1.2087190000 	    0.7249360000
H   	   -0.1583940000 	   -1.6798420000 	    0.5046120000
H   	   -0.0098140000 	   -0.3788260000 	    1.6883860000
H   	    0.8333460000 	    1.7532140000 	    0.0701220000
H   	    2.4507260000 	    1.4084650000 	   -0.3671740000
H   	    1.8534510000 	   -1.9764200000 	   -0.3879890000
