28
tauto -687.158073716
C   	    2.5935030000 	   -1.9006350000 	   -0.8794560000
C   	    3.5066310000 	   -1.0472090000 	   -0.0295580000
C   	    2.8509890000 	   -0.1431980000 	    1.0178150000
C   	    1.6800510000 	    0.6487870000 	    0.4961480000
N   	    0.4807180000 	    0.0643080000 	    0.5015090000
C   	   -0.5540080000 	    0.7578840000 	    0.0146090000
C   	   -1.8901100000 	    0.1072440000 	    0.0286890000
C   	   -1.9819140000 	   -1.2873530000 	    0.0313380000
C   	   -3.2225420000 	   -1.9119150000 	    0.0301080000
C   	   -4.3892470000 	   -1.1514180000 	    0.0338180000
C   	   -4.3073850000 	    0.2374430000 	    0.0442700000
C   	   -3.0657520000 	    0.8632670000 	    0.0424590000
C   	   -0.3585380000 	    2.0434010000 	   -0.5053720000
N   	    0.8292530000 	    2.6398820000 	   -0.5073850000
C   	    1.8432810000 	    1.9437170000 	    0.0009250000
O   	    4.7112420000 	   -1.0773000000 	   -0.1445200000
H   	    2.1069820000 	   -1.2748870000 	   -1.6371200000
H   	    1.7952260000 	   -2.3466920000 	   -0.2778280000
H   	    3.1819010000 	   -2.6718630000 	   -1.3795000000
H   	    3.6320990000 	    0.5115400000 	    1.4129340000
H   	    2.4929870000 	   -0.7894400000 	    1.8286910000
H   	   -1.0665570000 	   -1.8719720000 	    0.0342510000
H   	   -3.2802840000 	   -2.9973420000 	    0.0254300000
H   	   -5.3598000000 	   -1.6406370000 	    0.0341960000
H   	   -5.2132990000 	    0.8376620000 	    0.0616960000
H   	   -3.0167600000 	    1.9487940000 	    0.0776960000
H   	   -1.1816340000 	    2.5986860000 	   -0.9490430000
H   	    2.8196500000 	    2.4251150000 	    0.0111430000
