24
tauto -738.076652843
O   	    2.7900430000 	    2.4079300000 	    0.2675580000
C   	    1.6753760000 	    3.1064720000 	   -0.0051070000
C   	    0.4525620000 	    2.5798170000 	   -0.1743030000
C   	    0.0825790000 	    1.1729120000 	   -0.1066760000
N   	   -1.2008540000 	    0.8835150000 	   -0.3826490000
C   	   -1.5183420000 	   -0.4075560000 	   -0.3287490000
C   	   -2.9480220000 	   -0.7679840000 	   -0.6228540000
C   	   -3.9426960000 	    0.0330080000 	    0.2000420000
O   	   -5.0099020000 	   -0.4064460000 	    0.5483450000
N   	   -0.6756200000 	   -1.4015310000 	   -0.0357220000
C   	    0.5717630000 	   -1.0054790000 	    0.2271410000
C   	    1.5832650000 	   -2.0609760000 	    0.5781500000
C   	    2.9280660000 	   -1.8596890000 	   -0.0999270000
O   	    3.6661080000 	   -2.7757110000 	   -0.3673850000
N   	    1.0019200000 	    0.2535560000 	    0.2138420000
H   	    3.5362720000 	    3.0156010000 	    0.3336450000
H   	    1.8012200000 	    4.1853860000 	   -0.0960380000
H   	   -0.3580130000 	    3.2623690000 	   -0.4028240000
H   	   -3.1202020000 	   -1.8356710000 	   -0.4756390000
H   	   -3.1511940000 	   -0.5266590000 	   -1.6759380000
H   	   -3.6286380000 	    1.0673570000 	    0.4444160000
H   	    1.1986030000 	   -3.0597410000 	    0.3625170000
H   	    1.7704170000 	   -2.0003200000 	    1.6602730000
H   	    3.1961170000 	   -0.8064310000 	   -0.3131560000
