32
tauto -800.924923058
C   	   -2.4691370000 	    3.1261670000 	   -0.4844450000
C   	   -2.6781950000 	    1.6272880000 	   -0.3247190000
N   	   -1.4205110000 	    0.9734730000 	   -0.0169480000
C   	   -1.4206130000 	   -0.2958570000 	    0.1391540000
C   	   -0.0785310000 	   -0.9515490000 	    0.4539870000
C   	    0.6866750000 	   -0.1526770000 	    1.4980420000
O   	    1.9158580000 	    0.2853590000 	    1.1547850000
C   	    2.3070930000 	    0.4123470000 	   -0.2114760000
C   	    1.7433640000 	    1.6936540000 	   -0.7977820000
C   	    3.8196050000 	    0.3541550000 	   -0.2159150000
O   	    1.8780230000 	   -0.7100100000 	   -0.9979590000
O   	    0.2821450000 	   -0.0128410000 	    2.6172340000
C   	    0.6638890000 	   -1.2574100000 	   -0.8371670000
O   	    0.2221380000 	   -2.0117110000 	   -1.6645820000
N   	   -2.5009230000 	   -1.1221770000 	    0.0428660000
C   	   -2.4832090000 	   -2.5747980000 	    0.0802350000
H   	   -3.4129210000 	    3.6350270000 	   -0.7074300000
H   	   -1.7655870000 	    3.3274590000 	   -1.2988780000
H   	   -2.0524250000 	    3.5488600000 	    0.4347330000
H   	   -3.1141390000 	    1.2178860000 	   -1.2535730000
H   	   -3.4136570000 	    1.4426000000 	    0.4767670000
H   	   -0.2511990000 	   -1.9230660000 	    0.9282150000
H   	    2.1448690000 	    2.5482640000 	   -0.2458220000
H   	    0.6507840000 	    1.7044020000 	   -0.7158540000
H   	    2.0382050000 	    1.7746920000 	   -1.8478310000
H   	    4.2187070000 	    1.1761570000 	    0.3832360000
H   	    4.1891440000 	    0.4403620000 	   -1.2407440000
H   	    4.1537670000 	   -0.5953180000 	    0.2092950000
H   	   -3.3665390000 	   -0.6846760000 	   -0.2275180000
H   	   -2.3161760000 	   -2.9550190000 	    1.0956820000
H   	   -1.7236220000 	   -2.9769990000 	   -0.5966120000
H   	   -3.4601340000 	   -2.9340040000 	   -0.2504190000
