33
tauto -856.046959067
C   	    2.6127640000 	    3.9590220000 	   -0.1439460000
C   	    1.9603370000 	    2.6133390000 	    0.0643960000
C   	    0.8662030000 	    2.2449020000 	   -0.9406340000
C   	    0.1984810000 	    0.9614710000 	   -0.5518700000
N   	   -0.9758150000 	    1.0353190000 	    0.0746870000
C   	   -1.4760670000 	   -0.1373840000 	    0.4716670000
C   	   -2.8187740000 	   -0.1181340000 	    1.1426290000
C   	   -3.9986650000 	   -0.0107980000 	    0.1692290000
C   	   -3.8484620000 	   -0.6781830000 	   -1.1779730000
O   	   -5.0093670000 	    0.5614500000 	    0.5038820000
N   	   -0.8791500000 	   -1.3200750000 	    0.2996240000
C   	    0.2861900000 	   -1.2770210000 	   -0.3513720000
C   	    1.0445980000 	   -2.5554710000 	   -0.5544620000
C   	    2.4639490000 	   -2.5206970000 	    0.0274890000
C   	    2.6583580000 	   -1.7883540000 	    1.3336290000
O   	    3.3617660000 	   -3.0985090000 	   -0.5405560000
N   	    0.8558630000 	   -0.1650270000 	   -0.8186990000
O   	    2.2755920000 	    1.8714920000 	    0.9676650000
H   	    1.8724210000 	    4.7567000000 	   -0.0133500000
H   	    3.0050740000 	    4.0433360000 	   -1.1636010000
H   	    3.4212360000 	    4.0898570000 	    0.5770180000
H   	    1.3365620000 	    2.1397100000 	   -1.9254480000
H   	    0.1321470000 	    3.0554180000 	   -0.9923160000
H   	   -2.8879510000 	    0.7240560000 	    1.8343150000
H   	   -2.9454410000 	   -1.0541650000 	    1.6985640000
H   	   -3.4079400000 	   -1.6758690000 	   -1.0742440000
H   	   -3.1682400000 	   -0.0856670000 	   -1.8023440000
H   	   -4.8218850000 	   -0.7356390000 	   -1.6674560000
H   	    1.1417400000 	   -2.7710390000 	   -1.6224110000
H   	    0.4935750000 	   -3.3753100000 	   -0.0806310000
H   	    1.8729710000 	   -2.0576460000 	    2.0499590000
H   	    2.5919160000 	   -0.7053350000 	    1.1688120000
H   	    3.6401290000 	   -2.0315370000 	    1.7432260000
