28
tauto -781.505104281
C   	   -4.5325830000 	   -0.1794270000 	   -0.7075590000
C   	   -3.7259210000 	   -0.5846370000 	    0.5260500000
N   	   -2.2979050000 	   -0.6749990000 	    0.2763670000
C   	   -1.4484040000 	    0.3555930000 	    0.2139450000
O   	   -1.9166150000 	    1.5833320000 	    0.4164330000
C   	   -0.0758830000 	    0.1851740000 	   -0.0286760000
C   	    0.7888530000 	    1.3433100000 	   -0.2623950000
O   	    2.1154920000 	    1.0393230000 	   -0.4445190000
C   	    2.6098750000 	   -0.1929210000 	    0.0432660000
C   	    3.9473370000 	   -0.4141860000 	   -0.6305530000
C   	    2.7110710000 	   -0.1700750000 	    1.5638950000
O   	    1.7779530000 	   -1.2794930000 	   -0.3709620000
O   	    0.4532750000 	    2.4957200000 	   -0.3665520000
C   	    0.4420260000 	   -1.1578130000 	   -0.2114500000
O   	   -0.2236560000 	   -2.1860350000 	   -0.2582460000
H   	   -5.5996820000 	   -0.1295120000 	   -0.4687970000
H   	   -4.3906630000 	   -0.9093630000 	   -1.5095960000
H   	   -4.2228890000 	    0.7982590000 	   -1.0940510000
H   	   -4.0444990000 	   -1.5698290000 	    0.8761500000
H   	   -3.9156890000 	    0.0976380000 	    1.3673440000
H   	   -1.8513670000 	   -1.5732890000 	    0.0682500000
H   	   -2.8734080000 	    1.5672090000 	    0.5532780000
H   	    4.6330500000 	    0.3938880000 	   -0.3634370000
H   	    3.8087310000 	   -0.4231610000 	   -1.7141590000
H   	    4.3713200000 	   -1.3704760000 	   -0.3133910000
H   	    3.3718610000 	    0.6444870000 	    1.8725170000
H   	    3.1192510000 	   -1.1192210000 	    1.9220560000
H   	    1.7295000000 	   -0.0145200000 	    2.0208990000
