17
tauto -472.145684278
C   	    2.9859840000 	    0.5883350000 	   -0.3758590000
C   	    2.1334820000 	   -0.6151910000 	   -0.7362340000
O   	    0.7360190000 	   -0.3334810000 	   -0.5803130000
C   	    0.2093500000 	   -0.3538320000 	    0.6529330000
C   	   -1.2631260000 	    0.0579080000 	    0.5887520000
C   	   -1.3952230000 	    1.4366880000 	    0.0864870000
N   	   -1.4823590000 	    2.5271460000 	   -0.2838560000
C   	   -2.0394890000 	   -0.8750090000 	   -0.2461180000
N   	   -2.6468700000 	   -1.6255790000 	   -0.8797420000
N   	    0.7054570000 	   -0.6423290000 	    1.7772440000
H   	    4.0414350000 	    0.3664950000 	   -0.5624930000
H   	    2.8752230000 	    0.8651650000 	    0.6772090000
H   	    2.6985890000 	    1.4484330000 	   -0.9868970000
H   	    2.3943430000 	   -1.5045060000 	   -0.1488230000
H   	    2.2376070000 	   -0.8713120000 	   -1.7919430000
H   	   -1.6447010000 	    0.0161510000 	    1.6138250000
H   	    1.6898890000 	   -0.9006360000 	    1.7263310000
