22
tauto -462.423289451
C   	    1.2021410000 	    0.0003840000 	    1.5317120000
C   	    1.2029660000 	   -0.0006030000 	   -0.0030570000
C   	    2.6451640000 	   -0.0017630000 	   -0.5143440000
C   	    0.4769720000 	    1.2562720000 	   -0.5243440000
C   	   -0.9915910000 	    1.2735660000 	   -0.1457610000
C   	   -1.7648370000 	    0.0009590000 	   -0.4649040000
O   	   -1.5276750000 	    2.2282760000 	    0.3685730000
C   	    0.4755850000 	   -1.2572850000 	   -0.5226770000
C   	   -0.9933100000 	   -1.2725980000 	   -0.1452090000
O   	   -1.5310590000 	   -2.2267480000 	    0.3684260000
H   	    1.7159050000 	    0.8877980000 	    1.9181810000
H   	    1.7154560000 	   -0.8867940000 	    1.9193190000
H   	    0.1864330000 	    0.0009360000 	    1.9471000000
H   	    3.1841630000 	    0.8844920000 	   -0.1598040000
H   	    2.6786190000 	   -0.0026190000 	   -1.6104910000
H   	    3.1831980000 	   -0.8880680000 	   -0.1584580000
H   	    0.5452990000 	    1.2828110000 	   -1.6227980000
H   	    0.9391690000 	    2.1700950000 	   -0.1379320000
H   	   -1.9488390000 	    0.0007270000 	   -1.5506510000
H   	   -2.7289040000 	    0.0016970000 	    0.0468320000
H   	    0.9364480000 	   -2.1711350000 	   -0.1347140000
H   	    0.5443840000 	   -1.2857640000 	   -1.6210730000
