25
tauto -593.734817304
C   	    3.2542150000 	   -1.4479670000 	   -1.0162580000
C   	    3.2431340000 	   -0.1781000000 	   -0.2001050000
C   	    2.3723430000 	   -0.1952040000 	    1.0529820000
C   	    0.9543280000 	    0.1679520000 	    0.6661500000
N   	    0.0684600000 	   -0.7978380000 	    0.6365860000
C   	   -1.2118430000 	   -0.4882020000 	    0.2704100000
C   	   -2.1752600000 	   -1.5298650000 	    0.2479560000
C   	   -3.4715950000 	   -1.2664490000 	   -0.1077440000
C   	   -3.8690530000 	    0.0475750000 	   -0.4586180000
C   	   -2.9576920000 	    1.0699180000 	   -0.4463330000
C   	   -1.6088460000 	    0.8245350000 	   -0.0817450000
C   	   -0.6142520000 	    1.8374170000 	   -0.0537020000
C   	    0.6595300000 	    1.5161440000 	    0.3141270000
O   	    3.8488690000 	    0.8203640000 	   -0.5242800000
H   	    2.2333150000 	   -1.8269280000 	   -1.1397960000
H   	    3.8200700000 	   -2.2192720000 	   -0.4797170000
H   	    3.7193080000 	   -1.2681300000 	   -1.9870420000
H   	    2.7775230000 	    0.5389990000 	    1.7557170000
H   	    2.3598790000 	   -1.1876700000 	    1.5114300000
H   	   -1.8453320000 	   -2.5276320000 	    0.5226030000
H   	   -4.2057280000 	   -2.0678460000 	   -0.1216230000
H   	   -4.9018170000 	    0.2394570000 	   -0.7370860000
H   	   -3.2534100000 	    2.0822090000 	   -0.7145650000
H   	   -0.8793260000 	    2.8567480000 	   -0.3276760000
H   	    1.4552970000 	    2.2554910000 	    0.3331820000
