31
tauto -801.455278389
O   	    2.2929850000 	   -2.4986660000 	   -0.1682870000
C   	    1.9621130000 	   -1.4677580000 	    0.3856810000
C   	    0.8118410000 	   -1.4901970000 	    1.3916060000
C   	   -0.4887030000 	   -1.0920440000 	    0.7336820000
N   	   -1.0630410000 	    0.0265970000 	    1.0921230000
C   	   -2.2383140000 	    0.3423530000 	    0.4696550000
C   	   -2.9100550000 	    1.5401150000 	    0.8188320000
C   	   -4.0900780000 	    1.8657580000 	    0.2032840000
C   	   -4.6490450000 	    1.0142220000 	   -0.7826490000
C   	   -4.0168010000 	   -0.1485540000 	   -1.1362460000
C   	   -2.7951420000 	   -0.5063760000 	   -0.5144440000
N   	   -2.1731570000 	   -1.6670980000 	   -0.8809030000
C   	   -1.0536350000 	   -1.9401370000 	   -0.2709280000
C   	    2.6410190000 	   -0.1703070000 	    0.0831070000
C   	    3.7775390000 	   -0.2041480000 	   -0.7307300000
C   	    4.4503100000 	    0.9685320000 	   -1.0423590000
C   	    3.9852080000 	    2.1869380000 	   -0.5496970000
C   	    2.8476690000 	    2.2289240000 	    0.2506490000
C   	    2.1756580000 	    1.0537500000 	    0.5719360000
H   	    0.9954480000 	   -0.8246860000 	    2.2380900000
H   	    0.7437460000 	   -2.5203340000 	    1.7542500000
H   	   -2.4607220000 	    2.1735590000 	    1.5782840000
H   	   -4.6062780000 	    2.7841740000 	    0.4701650000
H   	   -5.5860050000 	    1.2912100000 	   -1.2582890000
H   	   -4.4187990000 	   -0.8212700000 	   -1.8881860000
H   	   -0.5311660000 	   -2.8552140000 	   -0.5495220000
H   	    4.1141500000 	   -1.1660360000 	   -1.1066410000
H   	    5.3365960000 	    0.9368080000 	   -1.6705740000
H   	    4.5102710000 	    3.1071350000 	   -0.7938280000
H   	    2.4800130000 	    3.1799270000 	    0.6266350000
H   	    1.2747580000 	    1.1011490000 	    1.1790900000
