25
tauto -667.935195054
C   	   -4.7837640000 	   -0.1809800000 	    0.9850930000
C   	   -4.2416720000 	    0.2262060000 	   -0.3706320000
O   	   -2.8623420000 	    0.6358390000 	   -0.2780240000
C   	   -1.9428650000 	   -0.3547710000 	   -0.2567560000
C   	   -0.5683180000 	    0.2250690000 	   -0.1540000000
O   	   -0.4801280000 	    1.5795410000 	   -0.1074640000
C   	    0.4835490000 	   -0.6042860000 	   -0.1136930000
C   	    1.9101810000 	   -0.2721930000 	   -0.0153690000
N   	    2.7196290000 	   -1.3459880000 	    0.0173240000
C   	    4.0301290000 	   -1.1405950000 	    0.1071560000
C   	    4.6155590000 	    0.1206430000 	    0.1684800000
C   	    3.7779050000 	    1.2284710000 	    0.1330650000
C   	    2.4058560000 	    1.0374910000 	    0.0401240000
O   	   -2.2130210000 	   -1.5288960000 	   -0.3171170000
H   	   -5.8484150000 	   -0.4216740000 	    0.8993620000
H   	   -4.6715550000 	    0.6319940000 	    1.7089610000
H   	   -4.2590190000 	   -1.0652210000 	    1.3558640000
H   	   -4.7581610000 	    1.1018870000 	   -0.7696230000
H   	   -4.3074420000 	   -0.5943320000 	   -1.0893230000
H   	   -1.3822080000 	    1.9315890000 	   -0.1498340000
H   	    0.2607960000 	   -1.6649650000 	   -0.1585540000
H   	    4.6495330000 	   -2.0364800000 	    0.1314840000
H   	    5.6939720000 	    0.2251300000 	    0.2420780000
H   	    4.1874370000 	    2.2346690000 	    0.1777960000
H   	    1.7222300000 	    1.8771110000 	    0.0105510000
