31
tauto -821.550332752
C   	    1.5971380000 	    2.8563360000 	   -0.6859910000
C   	    2.9542400000 	    2.1965140000 	   -0.5306500000
O   	    2.8513130000 	    1.0177670000 	    0.2904240000
C   	    2.4214250000 	   -0.0761610000 	   -0.3248870000
C   	    2.2667570000 	   -1.2582680000 	    0.6435620000
C   	    1.2672880000 	   -2.3028770000 	    0.1890300000
C   	   -0.1069060000 	   -1.6987470000 	    0.0100660000
N   	   -0.2856980000 	   -0.4993620000 	    0.5075350000
C   	   -1.5119780000 	    0.0878330000 	    0.3802820000
C   	   -1.6968300000 	    1.3881420000 	    0.9161900000
C   	   -2.9118310000 	    2.0119200000 	    0.8085250000
C   	   -3.9972920000 	    1.3686590000 	    0.1638830000
C   	   -3.8428650000 	    0.1122390000 	   -0.3596620000
C   	   -2.5956900000 	   -0.5563110000 	   -0.2624490000
C   	   -2.3658490000 	   -1.8565310000 	   -0.7848010000
C   	   -1.1329930000 	   -2.4266840000 	   -0.6535970000
O   	    2.9413090000 	   -1.3497690000 	    1.6374280000
O   	    2.1930690000 	   -0.1848750000 	   -1.5080510000
H   	    1.6925640000 	    3.7746500000 	   -1.2748060000
H   	    1.1818130000 	    3.1141810000 	    0.2931780000
H   	    0.9007310000 	    2.1862280000 	   -1.1983280000
H   	    3.6585450000 	    2.8382390000 	    0.0027270000
H   	    3.3765960000 	    1.9174160000 	   -1.4993610000
H   	    1.2487850000 	   -3.0985480000 	    0.9407520000
H   	    1.6114150000 	   -2.7320880000 	   -0.7597750000
H   	   -0.8490620000 	    1.8557990000 	    1.4090750000
H   	   -3.0503180000 	    3.0075610000 	    1.2218990000
H   	   -4.9542720000 	    1.8777530000 	    0.0875230000
H   	   -4.6717360000 	   -0.3889820000 	   -0.8554060000
H   	   -3.1760110000 	   -2.3810590000 	   -1.2875950000
H   	   -0.9223780000 	   -3.4169860000 	   -1.0480460000
