29
tauto -799.521060231
C   	    4.7290480000 	    1.1774810000 	    0.5435570000
C   	    4.6602500000 	   -0.3368120000 	    0.4905870000
O   	    3.6090750000 	   -0.7657320000 	   -0.3943420000
C   	    2.3743390000 	   -0.7551200000 	    0.1221470000
C   	    1.3429990000 	   -1.1648610000 	   -0.9107720000
C   	    0.0145020000 	   -0.5456660000 	   -0.5941090000
N   	   -1.0171270000 	   -1.2767400000 	   -0.3805640000
C   	   -2.2328490000 	   -0.6581980000 	   -0.0894110000
C   	   -3.3608500000 	   -1.4523980000 	    0.1495840000
C   	   -4.5796160000 	   -0.8705090000 	    0.4458030000
C   	   -4.6864090000 	    0.5243910000 	    0.5084840000
C   	   -3.5849400000 	    1.3296690000 	    0.2761070000
C   	   -2.3542890000 	    0.7375860000 	   -0.0236800000
N   	   -1.2172790000 	    1.4901160000 	   -0.2722180000
C   	    0.0062400000 	    0.9481560000 	   -0.5722310000
O   	    0.9915940000 	    1.6264060000 	   -0.8119120000
O   	    2.1122760000 	   -0.4857180000 	    1.2707360000
H   	    5.5552200000 	    1.4923000000 	    1.1900430000
H   	    3.7970060000 	    1.5857190000 	    0.9434280000
H   	    4.8908700000 	    1.5912260000 	   -0.4561570000
H   	    4.4843680000 	   -0.7631350000 	    1.4816290000
H   	    5.5686840000 	   -0.7696650000 	    0.0650700000
H   	    1.2350980000 	   -2.2534960000 	   -0.8980580000
H   	    1.6919190000 	   -0.8563220000 	   -1.9006550000
H   	   -3.2382130000 	   -2.5300910000 	    0.0936920000
H   	   -5.4512770000 	   -1.4910990000 	    0.6310630000
H   	   -5.6427450000 	    0.9847520000 	    0.7413120000
H   	   -3.6664430000 	    2.4131640000 	    0.3251990000
H   	   -1.2577430000 	    2.5010470000 	   -0.2393460000
