25
tauto -667.944736632
C   	    2.3169400000 	    2.3770750000 	   -0.0129400000
C   	    3.1271690000 	    1.1212390000 	    0.2477700000
O   	    2.4640380000 	   -0.0297880000 	   -0.3083880000
C   	    1.4758880000 	   -0.5316230000 	    0.4203500000
C   	    0.7671020000 	   -1.6933750000 	   -0.2919110000
C   	   -0.6541740000 	   -1.9363470000 	    0.1756370000
C   	   -1.5039130000 	   -0.6941440000 	    0.0311420000
N   	   -1.0180390000 	    0.2506540000 	   -0.7785400000
C   	   -1.7376720000 	    1.3605130000 	   -0.9550670000
C   	   -2.9673600000 	    1.5807550000 	   -0.3488890000
C   	   -3.4696480000 	    0.5925500000 	    0.4921390000
C   	   -2.7267790000 	   -0.5627350000 	    0.6892020000
O   	    1.3404270000 	   -2.3766500000 	   -1.1016870000
O   	    1.1514400000 	   -0.1676090000 	    1.5277600000
H   	    2.8517360000 	    3.2535480000 	    0.3676230000
H   	    1.3480130000 	    2.3162060000 	    0.4910420000
H   	    2.1498320000 	    2.5089000000 	   -1.0861440000
H   	    3.2814200000 	    0.9588010000 	    1.3175940000
H   	    4.0936660000 	    1.1493920000 	   -0.2595060000
H   	   -0.6285670000 	   -2.2529500000 	    1.2252050000
H   	   -1.0590440000 	   -2.7594970000 	   -0.4217030000
H   	   -1.3036400000 	    2.1069920000 	   -1.6183470000
H   	   -3.5120010000 	    2.5025190000 	   -0.5289240000
H   	   -4.4263390000 	    0.7234320000 	    0.9913400000
H   	   -3.0813670000 	   -1.3529950000 	    1.3455170000
