21
tauto -533.2748624
C   	    4.6600310000 	    0.5055300000 	   -0.5319900000
C   	    3.7521650000 	   -0.1853260000 	   -0.1485430000
C   	    2.6444380000 	   -1.0194720000 	    0.3265480000
C   	    1.2746570000 	   -0.3798690000 	    0.1980600000
N   	    0.2546410000 	   -1.1889440000 	    0.0789930000
C   	   -0.9821020000 	   -0.6154150000 	    0.0071550000
C   	   -2.1254820000 	   -1.4431770000 	   -0.1257260000
C   	   -3.3717360000 	   -0.8793040000 	   -0.1967320000
C   	   -3.5322110000 	    0.5287410000 	   -0.1389460000
C   	   -2.4420670000 	    1.3480380000 	   -0.0119900000
C   	   -1.1420790000 	    0.7879080000 	    0.0635400000
N   	   -0.0624540000 	    1.6147940000 	    0.1872750000
C   	    1.1069550000 	    1.0380430000 	    0.2490130000
H   	    5.4671910000 	    1.1128560000 	   -0.8797960000
H   	    2.8130360000 	   -1.2717160000 	    1.3820600000
H   	    2.6214780000 	   -1.9696350000 	   -0.2163990000
H   	   -1.9732270000 	   -2.5177800000 	   -0.1681270000
H   	   -4.2494830000 	   -1.5121900000 	   -0.2978680000
H   	   -4.5300110000 	    0.9552730000 	   -0.1976020000
H   	   -2.5325540000 	    2.4293850000 	    0.0345740000
H   	    1.9828470000 	    1.6786710000 	    0.3369530000
