29
tauto -708.259538802
C   	   -4.3820720000 	   -0.7086970000 	    1.8183840000
C   	   -4.6544880000 	   -0.4931790000 	    0.3420740000
O   	   -3.4772220000 	   -0.7483260000 	   -0.4468740000
C   	   -2.5882810000 	    0.2516590000 	   -0.5212330000
C   	   -1.4171780000 	   -0.1211900000 	   -1.4077160000
C   	   -0.0645540000 	    0.2035850000 	   -0.8089230000
N   	    0.7939880000 	   -0.7855920000 	   -0.7610730000
C   	    2.0410740000 	   -0.5379510000 	   -0.2610910000
C   	    2.9704470000 	   -1.6096160000 	   -0.2121600000
C   	    4.2326430000 	   -1.4092660000 	    0.2804970000
C   	    4.6281890000 	   -0.1314380000 	    0.7485240000
C   	    3.7497580000 	    0.9187400000 	    0.7117400000
C   	    2.4367270000 	    0.7384890000 	    0.2052160000
C   	    1.4765140000 	    1.7815220000 	    0.1371090000
C   	    0.2345510000 	    1.5239300000 	   -0.3659590000
O   	   -2.7308480000 	    1.3227360000 	    0.0248380000
H   	   -5.3089870000 	   -0.5886240000 	    2.3889770000
H   	   -3.6549900000 	    0.0218490000 	    2.1825970000
H   	   -3.9945360000 	   -1.7165370000 	    1.9955920000
H   	   -4.9957600000 	    0.5268440000 	    0.1468480000
H   	   -5.3928280000 	   -1.2029290000 	   -0.0380920000
H   	   -1.5456250000 	    0.4420700000 	   -2.3418480000
H   	   -1.4483560000 	   -1.1848240000 	   -1.6459330000
H   	    2.6415420000 	   -2.5782610000 	   -0.5773760000
H   	    4.9410170000 	   -2.2330440000 	    0.3147190000
H   	    5.6328340000 	    0.0103400000 	    1.1381530000
H   	    4.0445150000 	    1.9033150000 	    1.0695370000
H   	    1.7419360000 	    2.7769660000 	    0.4881920000
H   	   -0.5341000000 	    2.2871690000 	   -0.4163400000
