31
tauto -871.853901206
C   	    5.1843500000 	   -1.4144650000 	   -0.9939410000
C   	    4.8339670000 	   -0.0557330000 	   -0.4184730000
O   	    3.8109370000 	   -0.1626290000 	    0.5899400000
C   	    2.5530060000 	   -0.2488680000 	    0.1402530000
C   	    1.5802250000 	   -0.3652480000 	    1.2999940000
C   	    0.1665230000 	   -0.2239600000 	    0.8226460000
N   	   -0.6177290000 	   -1.2448800000 	    0.7836670000
C   	   -1.9194550000 	   -1.0778880000 	    0.3037040000
C   	   -2.7588520000 	   -2.1996270000 	    0.2567600000
C   	   -4.0530170000 	   -2.0940340000 	   -0.2173670000
C   	   -4.5413360000 	   -0.8583260000 	   -0.6584870000
C   	   -3.7367420000 	    0.2673900000 	   -0.6226710000
C   	   -2.4323480000 	    0.1528860000 	   -0.1414410000
N   	   -1.5547470000 	    1.2396570000 	   -0.0625580000
C   	   -0.2781840000 	    1.0895580000 	    0.4103690000
N   	    0.3515520000 	    2.2414960000 	    0.4191520000
N   	   -0.5182070000 	    3.1715870000 	   -0.0594090000
C   	   -1.6473650000 	    2.5700820000 	   -0.3444980000
O   	    2.2374890000 	   -0.2511550000 	   -1.0251950000
H   	    6.0081600000 	   -1.3147570000 	   -1.7085250000
H   	    4.3243600000 	   -1.8397050000 	   -1.5180760000
H   	    5.4963240000 	   -2.1021820000 	   -0.2018160000
H   	    4.4867510000 	    0.6283650000 	   -1.1969200000
H   	    5.6823980000 	    0.3916010000 	    0.1041260000
H   	    1.8246850000 	    0.4059540000 	    2.0372930000
H   	    1.7042440000 	   -1.3465080000 	    1.7675530000
H   	   -2.3514420000 	   -3.1448000000 	    0.6026300000
H   	   -4.6927320000 	   -2.9712230000 	   -0.2496470000
H   	   -5.5576350000 	   -0.7770870000 	   -1.0333720000
H   	   -4.1126230000 	    1.2274560000 	   -0.9650570000
H   	   -2.5306220000 	    3.0475400000 	   -0.7432040000
