27
tauto -727.883687534
O   	   -0.1287340000 	    2.4055100000 	    0.5321510000
C   	   -0.4553630000 	    1.2416080000 	    0.5001850000
C   	    0.3888930000 	    0.0387380000 	    0.9648010000
C   	    1.7608280000 	   -0.0383570000 	    0.3031250000
C   	    2.5870960000 	    1.0894090000 	    0.3396210000
C   	    3.8456570000 	    1.0607880000 	   -0.2492430000
C   	    4.3000170000 	   -0.0948990000 	   -0.8783430000
C   	    3.4862570000 	   -1.2211000000 	   -0.9094450000
C   	    2.2240490000 	   -1.1966680000 	   -0.3210840000
C   	   -1.7706030000 	    0.7255930000 	    0.0292670000
C   	   -2.8489580000 	    1.4409610000 	   -0.4792660000
C   	   -3.9840370000 	    0.7244930000 	   -0.8415340000
C   	   -4.0378570000 	   -0.6689780000 	   -0.6926510000
C   	   -2.9571310000 	   -1.3770220000 	   -0.1792530000
C   	   -1.8233460000 	   -0.6546440000 	    0.1757940000
C   	   -0.5426790000 	   -1.1616120000 	    0.7431620000
O   	   -0.3010010000 	   -2.3193800000 	    0.9998430000
H   	    0.5319190000 	    0.1436370000 	    2.0500870000
H   	    2.2286620000 	    1.9974610000 	    0.8151210000
H   	    4.4735830000 	    1.9476000000 	   -0.2152540000
H   	    5.2848080000 	   -0.1176550000 	   -1.3379990000
H   	    3.8327270000 	   -2.1316260000 	   -1.3918040000
H   	    1.6109480000 	   -2.0917050000 	   -0.3353240000
H   	   -2.7914000000 	    2.5205260000 	   -0.5861490000
H   	   -4.8463260000 	    1.2477790000 	   -1.2463100000
H   	   -4.9409840000 	   -1.1988610000 	   -0.9839310000
H   	   -2.9829930000 	   -2.4560500000 	   -0.0551980000
