31
tauto -912.810393774
C   	    6.0665830000 	   -0.9909110000 	   -0.5564260000
C   	    5.4013090000 	    0.3692040000 	   -0.4759980000
O   	    3.9911950000 	    0.2745530000 	   -0.7609010000
C   	    3.2177380000 	   -0.0988190000 	    0.2485100000
C   	    1.7333400000 	   -0.1627030000 	   -0.1598690000
C   	    0.7864750000 	   -0.4923040000 	    0.9763640000
C   	   -0.6270940000 	   -0.1626680000 	    0.6074730000
N   	   -1.5110080000 	   -1.0851740000 	    0.4949810000
C   	   -2.8135650000 	   -0.7301640000 	    0.1442320000
C   	   -3.7830360000 	   -1.7325680000 	    0.0196830000
C   	   -5.0818470000 	   -1.4139850000 	   -0.3316270000
C   	   -5.4297750000 	   -0.0779230000 	   -0.5667810000
C   	   -4.4884020000 	    0.9297020000 	   -0.4498040000
C   	   -3.1764420000 	    0.6040250000 	   -0.0923540000
N   	   -2.1922840000 	    1.5693920000 	    0.0487130000
C   	   -0.8963820000 	    1.2919210000 	    0.4015740000
O   	   -0.0469410000 	    2.1552450000 	    0.5446740000
O   	    1.3907310000 	    0.0016060000 	   -1.3027650000
O   	    3.5883660000 	   -0.3689920000 	    1.3678780000
H   	    7.1464840000 	   -0.8826030000 	   -0.4117020000
H   	    5.8928630000 	   -1.4482970000 	   -1.5349630000
H   	    5.6810720000 	   -1.6549010000 	    0.2220430000
H   	    5.7822900000 	    1.0514230000 	   -1.2385050000
H   	    5.5300110000 	    0.8188580000 	    0.5122740000
H   	    1.1043390000 	    0.0556870000 	    1.8689810000
H   	    0.8662750000 	   -1.5619860000 	    1.1990290000
H   	   -3.4752740000 	   -2.7571140000 	    0.2072160000
H   	   -5.8300390000 	   -2.1952510000 	   -0.4264050000
H   	   -6.4496400000 	    0.1750810000 	   -0.8436140000
H   	   -4.7565210000 	    1.9679340000 	   -0.6318620000
H   	   -2.4090320000 	    2.5455100000 	   -0.1092860000
