28
tauto -724.291510769
C   	   -4.7925530000 	   -0.9120760000 	    1.4515570000
C   	   -4.7957240000 	   -0.0822130000 	    0.1823340000
O   	   -3.6511640000 	   -0.3823730000 	   -0.6397680000
C   	   -2.5067060000 	    0.2287610000 	   -0.3052590000
C   	   -1.4050810000 	   -0.1444330000 	   -1.2783090000
C   	   -0.0205450000 	    0.1396580000 	   -0.7584860000
N   	    0.8114390000 	   -0.8645390000 	   -0.6746750000
C   	    2.0718890000 	   -0.5852670000 	   -0.2252050000
C   	    3.0168980000 	   -1.6350470000 	   -0.1137500000
C   	    4.2851490000 	   -1.3686460000 	    0.3314430000
C   	    4.6628980000 	   -0.0483260000 	    0.6828410000
C   	    3.7651800000 	    0.9820200000 	    0.5829090000
C   	    2.4481980000 	    0.7304470000 	    0.1255330000
N   	    1.5621970000 	    1.7673410000 	    0.0290130000
C   	    0.3666820000 	    1.4696790000 	   -0.3966150000
O   	   -2.3896880000 	    0.9936280000 	    0.6235110000
H   	   -5.7119850000 	   -0.7287610000 	    2.0173430000
H   	   -3.9404760000 	   -0.6437080000 	    2.0816100000
H   	   -4.7398270000 	   -1.9791280000 	    1.2148500000
H   	   -4.7967340000 	    0.9875340000 	    0.4075930000
H   	   -5.6524190000 	   -0.3205890000 	   -0.4521680000
H   	   -1.5924630000 	    0.4179490000 	   -2.2031370000
H   	   -1.4829340000 	   -1.2048180000 	   -1.5288430000
H   	    2.6996130000 	   -2.6365260000 	   -0.3900660000
H   	    5.0118280000 	   -2.1722450000 	    0.4172040000
H   	    5.6735310000 	    0.1419500000 	    1.0343090000
H   	    4.0242450000 	    2.0038310000 	    0.8447010000
H   	   -0.3587280000 	    2.2775140000 	   -0.4676600000
