28
tauto -724.297688498
C   	   -4.5977470000 	   -0.2829570000 	    0.0960800000
C   	   -3.1654980000 	   -0.6270860000 	    0.4178230000
C   	   -2.2693670000 	   -0.9847220000 	   -0.7682080000
C   	   -0.8572840000 	   -0.5550080000 	   -0.5124430000
N   	    0.0952980000 	   -1.4083850000 	   -0.4434220000
C   	    1.3808100000 	   -0.9373150000 	   -0.1872710000
C   	    2.4215510000 	   -1.8686750000 	   -0.1032700000
C   	    3.7163210000 	   -1.4603550000 	    0.1567900000
C   	    3.9817610000 	   -0.0999560000 	    0.3378730000
C   	    2.9679770000 	    0.8408650000 	    0.2587970000
C   	    1.6542170000 	    0.4296770000 	   -0.0055100000
N   	    0.5999650000 	    1.3376040000 	   -0.1000390000
C   	    0.8324720000 	    2.7628450000 	    0.0792230000
C   	   -0.6858190000 	    0.9174750000 	   -0.3593690000
O   	   -1.6337170000 	    1.6845040000 	   -0.4697570000
O   	   -2.7283820000 	   -0.6292530000 	    1.5468620000
H   	   -5.0338470000 	   -1.0082270000 	   -0.6000810000
H   	   -4.6073130000 	    0.6967950000 	   -0.3961980000
H   	   -5.1864200000 	   -0.2358260000 	    1.0138090000
H   	   -2.6531870000 	   -0.5126900000 	   -1.6793910000
H   	   -2.2873080000 	   -2.0716970000 	   -0.9039900000
H   	    2.1677820000 	   -2.9147350000 	   -0.2477210000
H   	    4.5191420000 	   -2.1886960000 	    0.2218360000
H   	    4.9958350000 	    0.2320680000 	    0.5439910000
H   	    3.1968470000 	    1.8911750000 	    0.4038240000
H   	    1.5325280000 	    3.1332550000 	   -0.6761710000
H   	    1.2366450000 	    2.9584930000 	    1.0770840000
H   	   -0.1271310000 	    3.2648240000 	   -0.0326880000
