32
tauto -876.683457257
O   	   -1.1289790000 	    0.3491440000 	    1.3661510000
C   	   -1.6340330000 	   -0.0373870000 	    0.3315640000
C   	   -0.7626480000 	   -0.4458340000 	   -0.8530630000
C   	    0.6774420000 	   -0.1358150000 	   -0.5808110000
N   	    1.5194640000 	   -1.0798120000 	   -0.3692810000
C   	    2.8461100000 	   -0.7498000000 	   -0.0910200000
C   	    3.7688050000 	   -1.7757640000 	    0.1447700000
C   	    5.0890660000 	   -1.4817160000 	    0.4325730000
C   	    5.5058090000 	   -0.1461040000 	    0.4903980000
C   	    4.6113350000 	    0.8848460000 	    0.2607220000
C   	    3.2777420000 	    0.5836000000 	   -0.0323650000
N   	    2.3388600000 	    1.5708600000 	   -0.2835910000
C   	    1.0237030000 	    1.3172340000 	   -0.5839730000
O   	    0.2235070000 	    2.1978550000 	   -0.8478820000
C   	   -3.1208950000 	   -0.1490090000 	    0.1906340000
C   	   -3.7327130000 	   -0.6531520000 	   -0.9589750000
C   	   -5.1188770000 	   -0.7427170000 	   -1.0324010000
C   	   -5.8998880000 	   -0.3268160000 	    0.0416530000
C   	   -5.2952610000 	    0.1775530000 	    1.1915800000
C   	   -3.9120070000 	    0.2638840000 	    1.2658510000
H   	   -1.1008540000 	    0.0919340000 	   -1.7461080000
H   	   -0.8691840000 	   -1.5215000000 	   -1.0300000000
H   	    3.4071020000 	   -2.7987210000 	    0.0946280000
H   	    5.8006590000 	   -2.2815180000 	    0.6149300000
H   	    6.5423910000 	    0.0882110000 	    0.7171220000
H   	    4.9334380000 	    1.9228040000 	    0.3053870000
H   	    2.6072330000 	    2.5465650000 	   -0.2638740000
H   	   -3.1337350000 	   -0.9809830000 	   -1.8046220000
H   	   -5.5891520000 	   -1.1371590000 	   -1.9291710000
H   	   -6.9832390000 	   -0.3958920000 	   -0.0175630000
H   	   -5.9055620000 	    0.5030820000 	    2.0298820000
H   	   -3.4157310000 	    0.6518240000 	    2.1505210000
