23
tauto -696.934122436
N   	   -3.8914630000 	   -1.5071090000 	    1.4408090000
C   	   -3.3064750000 	   -1.3570770000 	    0.4551990000
C   	   -2.5510950000 	   -1.1828560000 	   -0.7915300000
C   	   -1.1595590000 	   -0.6609220000 	   -0.5151340000
N   	   -0.1639120000 	   -1.4748370000 	   -0.4847050000
C   	    1.1081400000 	   -0.9715900000 	   -0.1999790000
C   	    2.1835380000 	   -1.8697330000 	   -0.1589040000
C   	    3.4609270000 	   -1.4257370000 	    0.1260260000
C   	    3.6934140000 	   -0.0681370000 	    0.3776690000
C   	    2.6514320000 	    0.8421960000 	    0.3437390000
C   	    1.3646930000 	    0.3872670000 	    0.0548840000
N   	    0.2546570000 	    1.2376270000 	   -0.0051140000
C   	   -0.9971530000 	    0.7553050000 	   -0.2856190000
N   	   -1.8759530000 	    1.7304780000 	   -0.3140980000
N   	   -1.2002930000 	    2.8781740000 	   -0.0446270000
C   	    0.0634550000 	    2.5795000000 	    0.1386080000
H   	   -3.0962220000 	   -0.4824110000 	   -1.4327880000
H   	   -2.4666480000 	   -2.1495710000 	   -1.2948350000
H   	    1.9721880000 	   -2.9165170000 	   -0.3546820000
H   	    4.2860980000 	   -2.1310540000 	    0.1565010000
H   	    4.6980920000 	    0.2783220000 	    0.6021350000
H   	    2.8296300000 	    1.8956980000 	    0.5394280000
H   	    0.8477040000 	    3.2859140000 	    0.3686440000
