28
tauto -832.544602474
C   	    5.0733060000 	   -0.5827780000 	    0.7888570000
O   	    4.1176410000 	   -0.6990900000 	   -0.2684750000
C   	    2.8379450000 	   -0.6408470000 	    0.1215440000
C   	    1.9094100000 	   -0.7755950000 	   -1.0709270000
C   	    0.4977440000 	   -0.4491090000 	   -0.6869680000
N   	   -0.3923020000 	   -1.3767600000 	   -0.6092670000
C   	   -1.6919030000 	   -1.0346930000 	   -0.2259790000
C   	   -2.6492890000 	   -2.0547830000 	   -0.1368750000
C   	   -3.9486140000 	   -1.7735020000 	    0.2419880000
C   	   -4.3237130000 	   -0.4587300000 	    0.5434730000
C   	   -3.4007380000 	    0.5694920000 	    0.4647370000
C   	   -2.0918550000 	    0.2776410000 	    0.0803290000
N   	   -1.0990760000 	    1.2567320000 	   -0.0337840000
C   	    0.1771010000 	    0.9347370000 	   -0.4125460000
N   	    0.9268870000 	    2.0104770000 	   -0.4769930000
N   	    0.1385480000 	    3.0637800000 	   -0.1314730000
C   	   -1.0625020000 	    2.6092770000 	    0.1313970000
O   	    2.4830710000 	   -0.5198270000 	    1.2681710000
H   	    4.9365010000 	   -1.3845020000 	    1.5188520000
H   	    4.9643810000 	    0.3808020000 	    1.2922930000
H   	    6.0502820000 	   -0.6592500000 	    0.3118790000
H   	    1.9513150000 	   -1.8055290000 	   -1.4375790000
H   	    2.2632760000 	   -0.1087000000 	   -1.8635770000
H   	   -2.3288920000 	   -3.0649310000 	   -0.3734540000
H   	   -4.6807010000 	   -2.5731120000 	    0.3072390000
H   	   -5.3450350000 	   -0.2395170000 	    0.8414250000
H   	   -3.6877670000 	    1.5909380000 	    0.6981430000
H   	   -1.9088090000 	    3.2088750000 	    0.4336490000
