32
tauto -838.822360661
C   	   -5.2861430000 	   -1.0766570000 	    1.0262270000
C   	   -4.7887150000 	    0.2001300000 	    0.3757500000
O   	   -3.7626750000 	   -0.0734670000 	   -0.5951550000
C   	   -2.5263200000 	   -0.2452700000 	   -0.1083550000
C   	   -1.5441040000 	   -0.5517080000 	   -1.2216680000
C   	   -0.1369750000 	   -0.2994310000 	   -0.7700410000
N   	    0.7017040000 	   -1.2636780000 	   -0.6820200000
C   	    1.9921580000 	   -0.9750690000 	   -0.2448440000
C   	    2.9087040000 	   -2.0276960000 	   -0.1466060000
C   	    4.2005110000 	   -1.8016850000 	    0.2903090000
C   	    4.5879700000 	   -0.5042630000 	    0.6379460000
C   	    3.6983570000 	    0.5538710000 	    0.5487330000
C   	    2.3884690000 	    0.3281660000 	    0.1036070000
N   	    1.4591790000 	    1.3596860000 	   -0.0134760000
C   	    1.8230370000 	    2.7265820000 	    0.3270710000
C   	    0.1762060000 	    1.1244770000 	   -0.4623270000
O   	   -0.6528290000 	    2.0099750000 	   -0.6137490000
O   	   -2.2389400000 	   -0.1932200000 	    1.0640830000
H   	   -6.1138050000 	   -0.8506760000 	    1.7068660000
H   	   -4.4849470000 	   -1.5470080000 	    1.6025340000
H   	   -5.6439360000 	   -1.7821930000 	    0.2699080000
H   	   -4.3911340000 	    0.8956160000 	    1.1192890000
H   	   -5.5779340000 	    0.6939910000 	   -0.1959190000
H   	   -1.7959130000 	    0.0646670000 	   -2.0895040000
H   	   -1.6434780000 	   -1.6057780000 	   -1.4981520000
H   	    2.5611130000 	   -3.0187520000 	   -0.4236520000
H   	    4.9076390000 	   -2.6225100000 	    0.3644630000
H   	    5.6005600000 	   -0.3155220000 	    0.9845430000
H   	    4.0212050000 	    1.5523650000 	    0.8234120000
H   	    2.6454180000 	    3.0724310000 	   -0.3070830000
H   	    2.1216580000 	    2.7899750000 	    1.3779350000
H   	    0.9439950000 	    3.3463610000 	    0.1575860000
