25
tauto -684.99596529
C   	    4.5243190000 	   -0.1844400000 	    0.0804150000
C   	    3.0925910000 	   -0.5245320000 	    0.4068490000
C   	    2.1788350000 	   -0.8395980000 	   -0.7788910000
C   	    0.7851760000 	   -0.3616010000 	   -0.5095970000
N   	   -0.2044280000 	   -1.1753930000 	   -0.4579260000
C   	   -1.4769200000 	   -0.6694910000 	   -0.1911890000
C   	   -2.5607750000 	   -1.5532390000 	   -0.1252910000
C   	   -3.8337990000 	   -1.0848780000 	    0.1431640000
C   	   -4.0409680000 	    0.2841710000 	    0.3516420000
C   	   -2.9850010000 	    1.1768380000 	    0.2910330000
C   	   -1.6994260000 	    0.6994980000 	    0.0187420000
N   	   -0.6033890000 	    1.5452440000 	   -0.0602220000
C   	    0.6709190000 	    1.1155650000 	   -0.3214460000
O   	    1.6252310000 	    1.8729160000 	   -0.4045320000
O   	    2.6648330000 	   -0.5533410000 	    1.5390500000
H   	    4.9482460000 	   -0.8962980000 	   -0.6368060000
H   	    5.1215960000 	   -0.1636350000 	    0.9935240000
H   	    4.5362140000 	    0.8067480000 	   -0.3883920000
H   	    2.1580430000 	   -1.9246800000 	   -0.9268960000
H   	    2.5720960000 	   -0.3703320000 	   -1.6877400000
H   	   -2.3611370000 	   -2.6080500000 	   -0.2896370000
H   	   -4.6702870000 	   -1.7755390000 	    0.1937720000
H   	   -5.0401160000 	    0.6550810000 	    0.5635150000
H   	   -3.1439570000 	    2.2404890000 	    0.4533640000
H   	   -0.7161860000 	    2.5408950000 	    0.0836180000
