29
tauto -671.147541054
C   	    2.5434670000 	    2.4271630000 	    0.3924740000
C   	    2.7890190000 	    0.9386360000 	    0.3863300000
C   	    2.1585290000 	    0.1615100000 	   -0.7741810000
C   	    0.6807010000 	   -0.0337770000 	   -0.4706750000
N   	   -0.2243030000 	    0.8957590000 	   -0.5934680000
C   	   -1.5094700000 	    0.5443850000 	   -0.2693740000
C   	   -2.5255710000 	    1.5242420000 	   -0.4003070000
C   	   -3.8268890000 	    1.2219040000 	   -0.0952670000
C   	   -4.1743700000 	   -0.0749280000 	    0.3537810000
C   	   -3.2106840000 	   -1.0398030000 	    0.4884120000
C   	   -1.8551620000 	   -0.7555650000 	    0.1818760000
C   	   -0.8194250000 	   -1.7249220000 	    0.3100350000
C   	    0.4537050000 	   -1.3650610000 	   -0.0150600000
C   	    1.7532080000 	   -2.1277390000 	    0.0175280000
C   	    2.6852940000 	   -1.2802150000 	   -0.8765370000
O   	    3.4270680000 	    0.3722850000 	    1.2479960000
H   	    1.4851680000 	    2.6341260000 	    0.1990600000
H   	    3.1179620000 	    2.8901680000 	   -0.4192410000
H   	    2.8580630000 	    2.8546340000 	    1.3462330000
H   	    2.2807280000 	    0.7422300000 	   -1.6955980000
H   	   -2.2316310000 	    2.5101650000 	   -0.7490290000
H   	   -4.6002590000 	    1.9787180000 	   -0.1975400000
H   	   -5.2104520000 	   -0.3014740000 	    0.5910980000
H   	   -3.4703970000 	   -2.0386250000 	    0.8337060000
H   	   -1.0626700000 	   -2.7271680000 	    0.6602590000
H   	    1.6525530000 	   -3.1601340000 	   -0.3324170000
H   	    2.1435250000 	   -2.1570490000 	    1.0419030000
H   	    2.6069420000 	   -1.6164860000 	   -1.9163360000
H   	    3.7299480000 	   -1.3526810000 	   -0.5660000000
