29
tauto -778.638077588
C   	    4.9012300000 	   -0.8910250000 	    0.6179220000
O   	    4.0874560000 	   -0.1050200000 	   -0.2548460000
C   	    2.8471180000 	    0.1309460000 	    0.1946460000
C   	    2.0680020000 	    0.9844170000 	   -0.7858100000
C   	    0.6050380000 	    0.9479320000 	   -0.4723130000
N   	   -0.0017370000 	    2.0325730000 	   -0.1269890000
N   	   -1.3359660000 	    2.0039460000 	    0.1764160000
C   	   -1.9719580000 	    0.8721610000 	    0.1506940000
C   	   -3.4183730000 	    0.8955510000 	    0.5805710000
C   	   -4.2197830000 	   -0.3097940000 	    0.1005890000
C   	   -3.4436510000 	   -1.5789950000 	    0.4349690000
C   	   -2.1217140000 	   -1.5992720000 	   -0.3136820000
N   	   -1.3959900000 	   -0.3209100000 	   -0.2090490000
C   	   -0.0621750000 	   -0.3515830000 	   -0.6019280000
O   	    0.4686340000 	   -1.3678930000 	   -1.0175830000
O   	    2.4272350000 	   -0.2676320000 	    1.2540710000
H   	    4.4443610000 	   -1.8698120000 	    0.7830100000
H   	    5.0258010000 	   -0.3895370000 	    1.5810400000
H   	    5.8614010000 	   -0.9953840000 	    0.1125740000
H   	    2.2650920000 	    0.6194790000 	   -1.7986260000
H   	    2.4203520000 	    2.0181490000 	   -0.7161750000
H   	   -3.8377560000 	    1.8457030000 	    0.2409630000
H   	   -3.4262370000 	    0.9269970000 	    1.6781090000
H   	   -4.3868290000 	   -0.2504740000 	   -0.9831570000
H   	   -5.2048200000 	   -0.3130180000 	    0.5777020000
H   	   -4.0053550000 	   -2.4784650000 	    0.1620960000
H   	   -3.2629610000 	   -1.6269600000 	    1.5166340000
H   	   -2.2802630000 	   -1.8001970000 	   -1.3799290000
H   	   -1.4459370000 	   -2.3733950000 	    0.0560320000
