29
tauto -853.609349941
C   	   -5.7214610000 	   -0.6278370000 	   -0.8347660000
O   	   -4.8772970000 	    0.1509750000 	    0.0162890000
C   	   -3.5798780000 	    0.1396020000 	   -0.3160390000
C   	   -2.7720210000 	    1.0113310000 	    0.6248580000
C   	   -1.3092070000 	    0.7434440000 	    0.4642480000
N   	   -0.5334190000 	    1.6795810000 	    0.0318480000
N   	    0.8081730000 	    1.4540170000 	   -0.1475320000
C   	    1.2953110000 	    0.2879600000 	    0.1461700000
C   	    2.7438100000 	    0.0377680000 	   -0.0490200000
C   	    3.2463780000 	   -1.2512190000 	   -0.2410160000
C   	    4.6110120000 	   -1.4501640000 	   -0.4200170000
C   	    5.4800270000 	   -0.3639980000 	   -0.4090550000
C   	    4.9807130000 	    0.9239850000 	   -0.2285780000
C   	    3.6189640000 	    1.1270990000 	   -0.0520190000
N   	    0.5255410000 	   -0.7294540000 	    0.6437000000
C   	   -0.8359010000 	   -0.5961490000 	    0.8539600000
O   	   -1.5188680000 	   -1.4783750000 	    1.3355470000
O   	   -3.1279950000 	   -0.4669420000 	   -1.2567890000
H   	   -5.6716760000 	   -0.2597970000 	   -1.8626710000
H   	   -6.7286260000 	   -0.5140080000 	   -0.4338580000
H   	   -5.4151750000 	   -1.6765700000 	   -0.8164640000
H   	   -3.0984330000 	    0.8134290000 	    1.6508040000
H   	   -2.9698440000 	    2.0628420000 	    0.3959810000
H   	    2.5784280000 	   -2.1089200000 	   -0.2910610000
H   	    4.9931930000 	   -2.4549960000 	   -0.5770420000
H   	    6.5464350000 	   -0.5204630000 	   -0.5478940000
H   	    5.6569790000 	    1.7744440000 	   -0.2245330000
H   	    3.2101290000 	    2.1235000000 	    0.0826690000
H   	    0.9433100000 	   -1.6046590000 	    0.9352250000
