24
tauto -666.968294869
C   	    4.1385530000 	   -0.9018360000 	    0.7442770000
C   	    3.6155620000 	    0.4242500000 	    0.2267930000
O   	    2.5535310000 	    0.2296990000 	   -0.7275450000
C   	    1.3387390000 	    0.0054890000 	   -0.2180330000
C   	    0.3110060000 	   -0.1920040000 	   -1.3127920000
C   	   -1.0585600000 	   -0.2698250000 	   -0.7054560000
N   	   -1.7569180000 	   -1.3265070000 	   -0.7922660000
C   	   -3.0486500000 	   -1.2932380000 	   -0.1149180000
C   	   -3.0079250000 	   -0.4063650000 	    1.1105530000
O   	   -2.6084750000 	    0.9236570000 	    0.7479500000
C   	   -1.5442590000 	    1.0166020000 	   -0.0618750000
O   	   -1.0469930000 	    2.0808830000 	   -0.3252300000
O   	    1.0873840000 	   -0.0462760000 	    0.9648760000
H   	    4.9899580000 	   -0.7311730000 	    1.4113980000
H   	    4.4704700000 	   -1.5365480000 	   -0.0831410000
H   	    3.3606510000 	   -1.4253980000 	    1.3064830000
H   	    4.3807170000 	    0.9700710000 	   -0.3295850000
H   	    3.2433240000 	    1.0505450000 	    1.0414470000
H   	    0.5225480000 	   -1.1231940000 	   -1.8460900000
H   	    0.3838730000 	    0.6406360000 	   -2.0186790000
H   	   -3.3153450000 	   -2.3160910000 	    0.1693150000
H   	   -3.8098770000 	   -0.9434220000 	   -0.8243060000
H   	   -2.2922740000 	   -0.7987250000 	    1.8431810000
H   	   -3.9860010000 	   -0.3033060000 	    1.5841420000
