39
tauto -960.069428411
O   	    0.6854510000 	   -0.7701480000 	   -1.7412520000
C   	    1.0421390000 	   -0.6664800000 	   -0.5830520000
C   	    0.0390560000 	   -0.7427870000 	    0.5793340000
C   	   -0.2518500000 	    0.6820790000 	    1.1051380000
C   	   -1.0173610000 	    1.6629330000 	    0.2753040000
C   	   -1.5065770000 	    1.3758490000 	   -1.0029260000
C   	   -2.2051930000 	    2.3488770000 	   -1.7102400000
C   	   -2.4227060000 	    3.6036260000 	   -1.1495770000
C   	   -1.9378410000 	    3.8941170000 	    0.1244210000
C   	   -1.2384200000 	    2.9278990000 	    0.8320630000
O   	    0.1498740000 	    0.9854830000 	    2.2132780000
C   	   -1.2374170000 	   -1.5408160000 	    0.3279420000
C   	   -2.3309210000 	   -1.3244640000 	    1.1726010000
C   	   -3.4913730000 	   -2.0797770000 	    1.0512730000
C   	   -3.5768800000 	   -3.0754410000 	    0.0837180000
C   	   -2.4907080000 	   -3.3077190000 	   -0.7525490000
C   	   -1.3291550000 	   -2.5491600000 	   -0.6337920000
C   	    2.4889680000 	   -0.4459410000 	   -0.2561600000
C   	    2.9571920000 	   -0.1790430000 	    1.0347750000
C   	    4.3167300000 	    0.0204220000 	    1.2532700000
C   	    5.2149280000 	   -0.0523630000 	    0.1936590000
C   	    4.7538810000 	   -0.3153670000 	   -1.0952130000
C   	    3.3983330000 	   -0.5061190000 	   -1.3182250000
H   	    0.5542040000 	   -1.2204670000 	    1.4187620000
H   	   -1.3366750000 	    0.4039010000 	   -1.4545410000
H   	   -2.5818330000 	    2.1230280000 	   -2.7040910000
H   	   -2.9715370000 	    4.3588250000 	   -1.7070030000
H   	   -2.1056100000 	    4.8741040000 	    0.5631460000
H   	   -0.8479860000 	    3.1302720000 	    1.8248560000
H   	   -2.2765830000 	   -0.5600440000 	    1.9453420000
H   	   -4.3284000000 	   -1.8890070000 	    1.7179880000
H   	   -4.4831010000 	   -3.6672660000 	   -0.0160180000
H   	   -2.5423780000 	   -4.0861050000 	   -1.5096800000
H   	   -0.5000890000 	   -2.7402280000 	   -1.3053230000
H   	    2.2697590000 	   -0.0933390000 	    1.8712360000
H   	    4.6730920000 	    0.2349720000 	    2.2571030000
H   	    6.2767070000 	    0.1000420000 	    0.3705960000
H   	    5.4540600000 	   -0.3686850000 	   -1.9246280000
H   	    3.0148050000 	   -0.7046380000 	   -2.3145270000
