33
tauto -985.124746482
C   	    5.3744650000 	    1.6766790000 	    0.6193600000
C   	    5.5332960000 	    0.1725160000 	    0.7313120000
O   	    4.6506370000 	   -0.5023850000 	   -0.1846550000
C   	    3.3838450000 	   -0.6440440000 	    0.2244140000
C   	    2.5439700000 	   -1.3315710000 	   -0.8351630000
C   	    1.0903270000 	   -1.0537240000 	   -0.6108090000
C   	    0.6857480000 	    0.3570780000 	   -0.7041860000
O   	    1.4269350000 	    1.2701940000 	   -0.9832400000
N   	    0.2862570000 	   -2.0334700000 	   -0.3627490000
N   	   -1.0368400000 	   -1.7968770000 	   -0.1426200000
C   	   -1.4822940000 	   -0.5752580000 	   -0.1728050000
N   	   -0.6929050000 	    0.5284070000 	   -0.4419280000
N   	   -1.1341050000 	    1.8277420000 	   -0.4891660000
C   	   -2.3794170000 	    2.0295270000 	   -0.2599170000
C   	   -3.3535900000 	    0.9996610000 	    0.0407960000
C   	   -2.8997150000 	   -0.3211900000 	    0.0853440000
C   	   -3.7888230000 	   -1.3632690000 	    0.3717750000
C   	   -5.1195400000 	   -1.0697450000 	    0.6087460000
C   	   -5.5794310000 	    0.2543500000 	    0.5641660000
C   	   -4.7035280000 	    1.2860510000 	    0.2822680000
O   	    2.9678780000 	   -0.2960660000 	    1.3040340000
H   	    6.0801270000 	    2.1784450000 	    1.2899660000
H   	    4.3592620000 	    1.9729190000 	    0.8968000000
H   	    5.5704570000 	    2.0097480000 	   -0.4041890000
H   	    5.3230090000 	   -0.1759020000 	    1.7457850000
H   	    6.5335080000 	   -0.1528440000 	    0.4356280000
H   	    2.7093980000 	   -2.4117170000 	   -0.7777940000
H   	    2.8662510000 	   -0.9813800000 	   -1.8204710000
H   	   -2.6910830000 	    3.0715010000 	   -0.3046310000
H   	   -3.4098480000 	   -2.3794900000 	    0.4023060000
H   	   -5.8161990000 	   -1.8727920000 	    0.8326510000
H   	   -6.6277930000 	    0.4681790000 	    0.7525820000
H   	   -5.0494060000 	    2.3164090000 	    0.2456770000
