26
tauto -847.64923374
C   	   -5.0075380000 	   -0.3035420000 	    0.1370660000
C   	   -3.5720610000 	   -0.6379810000 	    0.4491640000
C   	   -2.6713890000 	   -0.9689450000 	   -0.7441200000
C   	   -1.2933560000 	   -0.4301990000 	   -0.5169700000
N   	   -0.2751900000 	   -1.2162100000 	   -0.4579310000
C   	    0.9724070000 	   -0.6564710000 	   -0.2322020000
N   	    2.0351200000 	   -1.5249910000 	   -0.1803450000
C   	    3.1974350000 	   -1.0107680000 	    0.0583230000
N   	    4.3011840000 	   -1.8175630000 	    0.2022190000
N   	    3.4154150000 	    0.3375990000 	    0.2356730000
C   	    2.4077240000 	    1.2955210000 	    0.1724820000
O   	    2.6194850000 	    2.4859350000 	    0.3306820000
C   	    1.1134070000 	    0.6972090000 	   -0.0843140000
N   	    0.0209350000 	    1.5310120000 	   -0.1627400000
C   	   -1.2422850000 	    1.0586010000 	   -0.3804410000
O   	   -2.2338150000 	    1.7674820000 	   -0.4669260000
O   	   -3.1264660000 	   -0.6510980000 	    1.5745810000
H   	   -5.0231610000 	    0.6795250000 	   -0.3482460000
H   	   -5.5917000000 	   -0.2665110000 	    1.0580780000
H   	   -5.4415490000 	   -1.0275900000 	   -0.5616360000
H   	   -3.0933130000 	   -0.5422550000 	   -1.6609610000
H   	   -2.6142880000 	   -2.0568890000 	   -0.8531430000
H   	    4.1073970000 	   -2.7758470000 	   -0.0553650000
H   	    5.1786890000 	   -1.4699440000 	   -0.1579910000
H   	    4.3289430000 	    0.6838900000 	    0.5012690000
H   	    0.1670210000 	    2.5275870000 	   -0.0407480000
