24
tauto -609.773604912
C   	   -3.4032520000 	    0.2178770000 	   -0.9934270000
C   	   -2.5851500000 	   -0.6864880000 	   -0.1048940000
C   	   -1.8485320000 	   -0.0042860000 	    1.0490470000
C   	   -0.5801720000 	    0.6556720000 	    0.5571460000
N   	   -0.6173030000 	    1.9584970000 	    0.3919820000
C   	    0.5265030000 	    2.5586070000 	   -0.0348040000
N   	    1.6744840000 	    1.9951840000 	   -0.2907750000
C   	    1.7252170000 	    0.6385920000 	   -0.1388510000
C   	    2.9415080000 	   -0.0364480000 	   -0.4113190000
C   	    3.0084660000 	   -1.3985390000 	   -0.2862600000
C   	    1.8704930000 	   -2.1464550000 	    0.1065200000
C   	    0.6850990000 	   -1.5179870000 	    0.3826450000
C   	    0.5951720000 	   -0.1044320000 	    0.2741520000
O   	   -2.4999380000 	   -1.8820770000 	   -0.2820510000
H   	   -2.8591830000 	    1.1436880000 	   -1.2095050000
H   	   -4.3217180000 	    0.5010530000 	   -0.4647990000
H   	   -3.6678610000 	   -0.3016750000 	   -1.9159180000
H   	   -1.6298180000 	   -0.7588340000 	    1.8090900000
H   	   -2.4755050000 	    0.7818370000 	    1.4791650000
H   	    0.4618490000 	    3.6376880000 	   -0.1647050000
H   	    3.7943240000 	    0.5604450000 	   -0.7200570000
H   	    3.9402970000 	   -1.9174270000 	   -0.4961000000
H   	    1.9414110000 	   -3.2278480000 	    0.1835070000
H   	   -0.1966700000 	   -2.0947570000 	    0.6475460000
