40
tauto -1031.45191679
C   	   -3.2528010000 	   -2.5044190000 	   -1.9454320000
C   	   -2.1008490000 	   -2.4822850000 	   -0.9688100000
C   	   -1.5299140000 	   -1.0954180000 	   -0.6226040000
C   	   -2.6133110000 	   -0.2459670000 	    0.0583430000
C   	   -2.4918130000 	    1.2432770000 	    0.0405390000
C   	   -1.3864860000 	    1.9098910000 	   -0.4972410000
C   	   -1.3414290000 	    3.3002670000 	   -0.4831290000
C   	   -2.3956470000 	    4.0283670000 	    0.0599050000
C   	   -3.4978940000 	    3.3679240000 	    0.6000840000
C   	   -3.5436740000 	    1.9814420000 	    0.5933790000
O   	   -3.5411770000 	   -0.7987270000 	    0.6193050000
C   	   -0.3076960000 	   -1.1766040000 	    0.2644800000
N   	    0.8166880000 	   -0.6364280000 	   -0.1963480000
C   	    1.9033430000 	   -0.6994280000 	    0.5840250000
C   	    3.1567260000 	   -0.0879770000 	    0.0713040000
C   	    4.1493830000 	    0.3704550000 	    0.9419850000
C   	    5.3189580000 	    0.9348070000 	    0.4445390000
C   	    5.5094710000 	    1.0504550000 	   -0.9288010000
C   	    4.5212680000 	    0.6040350000 	   -1.8027590000
C   	    3.3518290000 	    0.0418080000 	   -1.3066870000
C   	    1.8359660000 	   -1.3393910000 	    1.8251650000
N   	    0.7112700000 	   -1.8688200000 	    2.3003130000
C   	   -0.3629560000 	   -1.7813980000 	    1.5221960000
O   	   -1.6399330000 	   -3.4928190000 	   -0.4923420000
H   	   -4.1715760000 	   -2.2627800000 	   -1.4010490000
H   	   -3.3449060000 	   -3.5043370000 	   -2.3731980000
H   	   -3.1281310000 	   -1.7618240000 	   -2.7406080000
H   	   -1.2236620000 	   -0.6162850000 	   -1.5595410000
H   	   -0.5441500000 	    1.3550970000 	   -0.9031480000
H   	   -0.4777180000 	    3.8144860000 	   -0.8955920000
H   	   -2.3571990000 	    5.1148540000 	    0.0661630000
H   	   -4.3196730000 	    3.9363200000 	    1.0272130000
H   	   -4.3890430000 	    1.4435220000 	    1.0121900000
H   	    4.0020860000 	    0.3096030000 	    2.0174270000
H   	    6.0794830000 	    1.2921420000 	    1.1338740000
H   	    6.4237950000 	    1.4911000000 	   -1.3177720000
H   	    4.6637630000 	    0.6931850000 	   -2.8766630000
H   	    2.5750690000 	   -0.3068410000 	   -1.9808600000
H   	    2.7207070000 	   -1.4405720000 	    2.4497240000
H   	   -1.2905100000 	   -2.2076100000 	    1.8954930000
