20
tauto -532.340615636
C   	    2.2474180000 	   -0.4336230000 	    1.4693690000
C   	    1.6923440000 	   -0.9942700000 	    0.1903620000
C   	    0.9704880000 	   -0.0050590000 	   -0.7649920000
C   	   -0.4982670000 	    0.0490300000 	   -0.3592780000
N   	   -0.7826060000 	    0.7643260000 	    0.7292910000
C   	   -2.0525820000 	    0.8020400000 	    1.1313960000
C   	   -3.0840040000 	    0.1317490000 	    0.4813620000
C   	   -2.7727750000 	   -0.6215790000 	   -0.6436410000
C   	   -1.4523250000 	   -0.6678600000 	   -1.0757650000
C   	    1.5840250000 	    1.3266050000 	   -0.7675840000
N   	    2.1052020000 	    2.3587550000 	   -0.7781940000
O   	    1.7240980000 	   -2.1614860000 	   -0.1160170000
H   	    3.0913820000 	    0.2294350000 	    1.2480710000
H   	    2.5750470000 	   -1.2500480000 	    2.1145190000
H   	    1.4827960000 	    0.1760890000 	    1.9638440000
H   	    1.0585050000 	   -0.4337660000 	   -1.7676780000
H   	   -2.2520930000 	    1.3981100000 	    2.0198330000
H   	   -4.1015910000 	    0.2003090000 	    0.8533230000
H   	   -3.5457130000 	   -1.1651100000 	   -1.1803230000
H   	   -1.1652130000 	   -1.2468920000 	   -1.9485130000
