22
tauto -645.580212883
O   	    3.6672130000 	   -1.1113420000 	   -0.9857670000
N   	    3.3009350000 	   -0.2197850000 	   -0.2476610000
C   	    2.3283440000 	   -0.5697260000 	    0.8386670000
C   	    0.9438490000 	   -0.0500830000 	    0.5165910000
N   	    0.0089160000 	   -0.9627710000 	    0.4298670000
C   	   -1.2667450000 	   -0.5524160000 	    0.1692930000
C   	   -2.2835250000 	   -1.5382080000 	    0.0758520000
C   	   -3.5762540000 	   -1.1719830000 	   -0.1872390000
C   	   -3.9152700000 	    0.1925350000 	   -0.3696630000
C   	   -2.9523420000 	    1.1621180000 	   -0.2847810000
C   	   -1.6042550000 	    0.8109420000 	   -0.0131690000
C   	   -0.5580990000 	    1.7632920000 	    0.0895210000
C   	    0.7137460000 	    1.3428590000 	    0.3563130000
O   	    3.6520080000 	    0.9466130000 	   -0.3177000000
H   	    2.7309450000 	   -0.1135370000 	    1.7461400000
H   	    2.3053010000 	   -1.6548690000 	    0.9107670000
H   	   -1.9961260000 	   -2.5756760000 	    0.2184640000
H   	   -4.3525730000 	   -1.9290860000 	   -0.2586410000
H   	   -4.9465430000 	    0.4644310000 	   -0.5780160000
H   	   -3.2040690000 	    2.2112150000 	   -0.4248520000
H   	   -0.7800710000 	    2.8199910000 	   -0.0440410000
H   	    1.5437260000 	    2.0372680000 	    0.4341570000
