21
tauto -681.821329006
C   	    0.9093330000 	    2.2828050000 	   -0.5166400000
C   	    0.7003560000 	    0.7753280000 	   -0.6784250000
C   	    1.6634260000 	   -0.0035270000 	    0.2068950000
O   	    2.9119750000 	    0.0632220000 	   -0.2635060000
C   	    3.8935090000 	   -0.6088380000 	    0.5336400000
O   	    1.3462560000 	   -0.5763640000 	    1.2221000000
C   	   -0.6836220000 	    0.3381870000 	   -0.3232800000
C   	   -1.1251940000 	   -1.1100280000 	   -0.5098660000
N   	   -2.4213810000 	   -1.0744400000 	   -0.0516720000
O   	   -0.4976190000 	   -2.0274310000 	   -0.9735320000
N   	   -1.6124720000 	    1.0786080000 	    0.1373580000
C   	   -2.7614030000 	    0.2256030000 	    0.3425100000
O   	   -3.8205180000 	    0.5779350000 	    0.7730130000
H   	    1.9336920000 	    2.5477260000 	   -0.7898350000
H   	    0.7228730000 	    2.5859220000 	    0.5173840000
H   	    0.2149880000 	    2.8333680000 	   -1.1561590000
H   	    0.8976820000 	    0.4746120000 	   -1.7155930000
H   	    3.6524760000 	   -1.6712180000 	    0.6136260000
H   	    3.9316440000 	   -0.1732430000 	    1.5349460000
H   	    4.8410670000 	   -0.4656260000 	    0.0151320000
H   	   -3.0566210000 	   -1.8567940000 	   -0.0129140000
