20
tauto -532.340615488
C   	    2.2485360000 	   -0.4347940000 	    1.4682850000
C   	    1.6926960000 	   -0.9943020000 	    0.1891230000
C   	    0.9703930000 	   -0.0042660000 	   -0.7650910000
C   	   -0.4983260000 	    0.0492360000 	   -0.3590390000
N   	   -0.7820890000 	    0.7609180000 	    0.7320620000
C   	   -2.0519880000 	    0.7981080000 	    1.1344280000
C   	   -3.0839490000 	    0.1308490000 	    0.4821130000
C   	   -2.7733670000 	   -0.6187190000 	   -0.6455520000
C   	   -1.4529790000 	   -0.6644250000 	   -1.0779680000
C   	    1.5834630000 	    1.3275870000 	   -0.7665700000
N   	    2.1042640000 	    2.3599360000 	   -0.7764310000
O   	    1.7240610000 	   -2.1612920000 	   -0.1182030000
H   	    3.0918690000 	    0.2291040000 	    1.2471510000
H   	    2.5771260000 	   -1.2517590000 	    2.1122590000
H   	    1.4838330000 	    0.1737850000 	    1.9640430000
H   	    1.0582020000 	   -0.4320740000 	   -1.7681740000
H   	   -2.2510430000 	    1.3911710000 	    2.0249720000
H   	   -4.1014420000 	    0.1988450000 	    0.8544330000
H   	   -3.5467500000 	   -1.1598150000 	   -1.1840530000
H   	   -1.1663880000 	   -1.2405410000 	   -1.9528060000
