21
tauto -661.580675365
O   	    3.2845590000 	   -1.2545520000 	   -0.1564790000
N   	    2.5740170000 	   -0.3547100000 	    0.2562270000
C   	    1.9321120000 	    0.5314780000 	   -0.7738970000
C   	    0.5247610000 	    0.9012460000 	   -0.3967080000
N   	    0.3132250000 	    2.1839750000 	   -0.2716240000
N   	   -0.9252810000 	    2.6496860000 	    0.0335360000
C   	   -1.8978150000 	    1.7991780000 	    0.2071840000
C   	   -1.7677860000 	    0.3855990000 	    0.0861020000
C   	   -2.8422830000 	   -0.5150610000 	    0.2657770000
C   	   -2.6275720000 	   -1.8618940000 	    0.1182020000
C   	   -1.3418140000 	   -2.3498990000 	   -0.2122790000
C   	   -0.2860100000 	   -1.4902290000 	   -0.3890560000
C   	   -0.4895880000 	   -0.0974370000 	   -0.2388690000
O   	    2.3569850000 	   -0.1010810000 	    1.4235810000
H   	    2.0039230000 	   -0.0079240000 	   -1.7195020000
H   	    2.5354050000 	    1.4408300000 	   -0.8102700000
H   	   -2.8647850000 	    2.2353310000 	    0.4557860000
H   	   -3.8265490000 	   -0.1279610000 	    0.5184330000
H   	   -3.4454980000 	   -2.5639040000 	    0.2546180000
H   	   -1.1902000000 	   -3.4197460000 	   -0.3248590000
H   	    0.6975840000 	   -1.8821060000 	   -0.6367360000
