15
tauto -508.011605244
O   	    2.7417650000 	   -0.6180590000 	   -0.9390580000
N   	    2.1650650000 	    0.0006510000 	   -0.0686650000
C   	    1.1163560000 	   -0.7223970000 	    0.7157530000
C   	   -0.2787460000 	   -0.2863050000 	    0.3217410000
N   	   -1.1507570000 	   -1.2835270000 	    0.1651450000
C   	   -2.3976820000 	   -0.9317770000 	   -0.1465550000
N   	   -2.8622760000 	    0.3016110000 	   -0.3277110000
C   	   -1.9717650000 	    1.2817840000 	   -0.1672680000
C   	   -0.6454890000 	    1.0466300000 	    0.1701980000
O   	    2.3616260000 	    1.1696970000 	    0.2204000000
H   	    1.3173050000 	   -0.4912310000 	    1.7646570000
H   	    1.2373340000 	   -1.7855440000 	    0.5184630000
H   	   -3.1107570000 	   -1.7445260000 	   -0.2697820000
H   	   -2.3383980000 	    2.2965540000 	   -0.3115430000
H   	    0.0671370000 	    1.8528820000 	    0.3028580000
