22
tauto -625.544608981
N   	   -3.7406360000 	    0.9123940000 	   -1.8691170000
C   	   -3.1413060000 	    0.2317140000 	   -1.1532470000
C   	   -2.3464420000 	   -0.6181220000 	   -0.2492530000
C   	   -0.9188560000 	   -0.0855750000 	   -0.0798930000
N   	    0.0274380000 	   -0.9439480000 	   -0.3446080000
C   	    1.3210970000 	   -0.5312180000 	   -0.1943300000
C   	    2.3590250000 	   -1.4560700000 	   -0.4756000000
C   	    3.6686890000 	   -1.0821020000 	   -0.3353350000
C   	    4.0026520000 	    0.2285580000 	    0.0890780000
C   	    3.0184150000 	    1.1393640000 	    0.3654570000
C   	    1.6523480000 	    0.7791600000 	    0.2304410000
C   	    0.5843350000 	    1.6724620000 	    0.5029130000
C   	   -0.7051880000 	    1.2477910000 	    0.3513140000
C   	   -3.0220600000 	   -0.7423300000 	    1.0552240000
N   	   -3.5273880000 	   -0.8371660000 	    2.0899340000
H   	   -2.2586600000 	   -1.6170050000 	   -0.6909490000
H   	    2.0757340000 	   -2.4532960000 	   -0.7987230000
H   	    4.4625910000 	   -1.7923350000 	   -0.5499380000
H   	    5.0476910000 	    0.5064140000 	    0.1952910000
H   	    3.2671680000 	    2.1468090000 	    0.6916640000
H   	    0.8031150000 	    2.6864630000 	    0.8300420000
H   	   -1.5498120000 	    1.9021950000 	    0.5485400000
