32
tauto -875.92579382
C   	   -5.2116810000 	    0.0456210000 	    1.3137260000
C   	   -4.7245990000 	    0.5045620000 	   -0.0476060000
O   	   -3.2887810000 	    0.5770500000 	   -0.0904800000
C   	   -2.6505790000 	   -0.5744020000 	   -0.2967100000
C   	   -1.1668610000 	   -0.4375240000 	   -0.3267290000
C   	   -0.4464950000 	   -1.5846420000 	   -0.4931670000
N   	    0.9069070000 	   -1.6539220000 	   -0.5597960000
C   	    1.5602650000 	   -0.5277360000 	   -0.4261840000
C   	    3.0705130000 	   -0.6341940000 	   -0.4759420000
C   	    3.8071190000 	    0.6906760000 	   -0.6087590000
C   	    3.1643160000 	    1.7095810000 	    0.3229170000
C   	    1.7139240000 	    1.9347560000 	   -0.0630200000
C   	    3.5241680000 	   -1.4301290000 	    0.7538910000
O   	    4.4629880000 	   -1.1112530000 	    1.4386640000
N   	    0.9658520000 	    0.6711720000 	   -0.2168510000
C   	   -0.4606430000 	    0.8262910000 	   -0.2003170000
O   	   -0.9190920000 	    1.9450840000 	   -0.0860930000
O   	   -3.2074140000 	   -1.6434620000 	   -0.4459710000
H   	   -6.3057630000 	    0.0798890000 	    1.3489380000
H   	   -4.8203610000 	    0.6972950000 	    2.1008830000
H   	   -4.8919070000 	   -0.9816880000 	    1.5068140000
H   	   -5.0482660000 	    1.5243270000 	   -0.2669080000
H   	   -5.0700900000 	   -0.1663020000 	   -0.8385350000
H   	   -0.9818080000 	   -2.5259160000 	   -0.5920850000
H   	    3.2753730000 	   -1.3001980000 	   -1.3252580000
H   	    3.7555270000 	    1.0451790000 	   -1.6454980000
H   	    4.8597620000 	    0.5382790000 	   -0.3564340000
H   	    3.6843110000 	    2.6716730000 	    0.2757190000
H   	    3.2361500000 	    1.3561780000 	    1.3585980000
H   	    1.6373140000 	    2.4807230000 	   -1.0105330000
H   	    1.1745620000 	    2.5229980000 	    0.6807580000
H   	    2.9275820000 	   -2.3397020000 	    0.9584990000
