29
tauto -836.618583795
C   	   -4.9736190000 	    0.2761030000 	    1.2601630000
C   	   -4.4756700000 	    0.5170310000 	   -0.1520470000
O   	   -3.0391100000 	    0.5744020000 	   -0.1948040000
C   	   -2.4063560000 	   -0.5979680000 	   -0.2251020000
C   	   -0.9221890000 	   -0.4637770000 	   -0.2755770000
C   	   -0.2090900000 	   -1.6228260000 	   -0.4150940000
N   	    1.1515170000 	   -1.7204280000 	   -0.4967720000
C   	    1.7694140000 	   -0.5789590000 	   -0.4339010000
C   	    3.2664830000 	   -0.3972560000 	   -0.4570770000
C   	    3.4525800000 	    1.1123830000 	   -0.6518450000
C   	    2.1260200000 	    1.7366080000 	   -0.1853490000
C   	    3.8388030000 	   -0.9234650000 	    0.8583150000
O   	    4.4989410000 	   -0.2534250000 	    1.6109370000
N   	    1.1780430000 	    0.6246420000 	   -0.2866370000
C   	   -0.2182140000 	    0.8139270000 	   -0.1698270000
O   	   -0.6508710000 	    1.9355890000 	   -0.0003170000
O   	   -2.9671250000 	   -1.6749210000 	   -0.2306390000
H   	   -6.0676190000 	    0.3218490000 	    1.2821650000
H   	   -4.5819150000 	    1.0384350000 	    1.9403750000
H   	   -4.6625120000 	   -0.7110740000 	    1.6122910000
H   	   -4.7918320000 	    1.4925940000 	   -0.5277890000
H   	   -4.8196670000 	   -0.2655420000 	   -0.8334260000
H   	   -0.7590020000 	   -2.5589800000 	   -0.4710350000
H   	    3.6913290000 	   -1.0116470000 	   -1.2598040000
H   	    3.6256550000 	    1.3359960000 	   -1.7079560000
H   	    4.3011760000 	    1.4797940000 	   -0.0713830000
H   	    1.7788610000 	    2.5648030000 	   -0.8056000000
H   	    2.1599910000 	    2.0818550000 	    0.8528200000
H   	    3.5949640000 	   -1.9815430000 	    1.0758480000
