35
tauto -915.223917208
C   	    5.5000310000 	    0.7167220000 	    0.8585670000
C   	    4.8955370000 	    0.5140710000 	   -0.5178710000
O   	    3.4583470000 	    0.5038380000 	   -0.4596450000
C   	    2.8963100000 	   -0.6466660000 	   -0.0926870000
C   	    1.4057300000 	   -0.6006070000 	   -0.0483620000
C   	    0.7704430000 	   -1.7423000000 	    0.3388870000
N   	   -0.5757630000 	   -1.8885410000 	    0.4532420000
C   	   -1.3077130000 	   -0.8488220000 	    0.1491600000
C   	   -2.8056670000 	   -1.0201490000 	    0.3031700000
C   	   -3.4786310000 	   -0.1101120000 	    1.3449160000
C   	   -3.6651560000 	    1.3577690000 	    0.9576950000
C   	   -2.3807430000 	    2.0886450000 	    0.5716350000
C   	   -1.6657860000 	    1.4744720000 	   -0.6314260000
C   	   -3.5187540000 	   -1.0728440000 	   -1.0395530000
O   	   -4.6493540000 	   -0.6916740000 	   -1.2179570000
N   	   -0.8001560000 	    0.3356340000 	   -0.2812630000
C   	    0.6140950000 	    0.5712470000 	   -0.3886510000
O   	    1.0128920000 	    1.6635280000 	   -0.7388890000
O   	    3.5208920000 	   -1.6517920000 	    0.1803760000
H   	    6.5881680000 	    0.8093480000 	    0.7769510000
H   	    5.2730120000 	   -0.1352850000 	    1.5047750000
H   	    5.1088850000 	    1.6293810000 	    1.3183880000
H   	    5.2395710000 	   -0.4207990000 	   -0.9679910000
H   	    5.1282620000 	    1.3470650000 	   -1.1847380000
H   	    1.3709730000 	   -2.6141450000 	    0.5871290000
H   	   -2.8799330000 	   -2.0531350000 	    0.6710340000
H   	   -2.8985110000 	   -0.1844760000 	    2.2737970000
H   	   -4.4634170000 	   -0.5407480000 	    1.5543130000
H   	   -4.1347240000 	    1.8749070000 	    1.8028460000
H   	   -4.3753330000 	    1.4158350000 	    0.1251080000
H   	   -1.6784810000 	    2.1301940000 	    1.4145190000
H   	   -2.6260280000 	    3.1272420000 	    0.3209780000
H   	   -0.9953340000 	    2.1993290000 	   -1.0908290000
H   	   -2.3858020000 	    1.1533280000 	   -1.3927650000
H   	   -2.9402880000 	   -1.5474320000 	   -1.8613320000
