26
tauto -685.945562469
C   	   -2.3172450000 	    2.4184230000 	    0.5657660000
C   	   -2.6741750000 	    0.9555630000 	    0.5556830000
C   	   -2.1110090000 	    0.1549900000 	   -0.6465780000
C   	   -0.6709970000 	   -0.2304940000 	   -0.3105620000
N   	    0.2430940000 	    0.6314410000 	   -0.6787270000
C   	    1.5442260000 	    0.3640760000 	   -0.3620810000
C   	    2.5408550000 	    1.2906820000 	   -0.7645400000
C   	    3.8574810000 	    1.0568620000 	   -0.4704820000
C   	    4.2424050000 	   -0.1096980000 	    0.2372930000
C   	    3.2994400000 	   -1.0182780000 	    0.6366460000
C   	    1.9272240000 	   -0.8011690000 	    0.3462910000
C   	    0.9001520000 	   -1.6989670000 	    0.7338880000
C   	   -0.3983410000 	   -1.4206970000 	    0.4132850000
C   	   -2.9489270000 	   -1.0114800000 	   -0.9346850000
N   	   -3.5959520000 	   -1.9390650000 	   -1.1734860000
O   	   -3.3184690000 	    0.4066140000 	    1.4142410000
H   	   -1.2691750000 	    2.5600460000 	    0.2822150000
H   	   -2.5159820000 	    2.8409050000 	    1.5519520000
H   	   -2.9317790000 	    2.9388930000 	   -0.1790640000
H   	   -2.0747280000 	    0.8001870000 	   -1.5303320000
H   	    2.2207420000 	    2.1752400000 	   -1.3073120000
H   	    4.6181600000 	    1.7682320000 	   -0.7808350000
H   	    5.2923210000 	   -0.2790000000 	    0.4601380000
H   	    3.5859840000 	   -1.9163100000 	    1.1797170000
H   	    1.1568320000 	   -2.6017860000 	    1.2839890000
H   	   -1.2111450000 	   -2.0848320000 	    0.6915550000
