43
tauto -920.76958752
O   	   -4.3235210000 	    1.2839540000 	    1.2769310000
C   	   -3.3056160000 	    1.3987820000 	    0.6413050000
C   	   -2.9473970000 	    0.5109540000 	   -0.5536940000
C   	   -3.9086460000 	   -0.6602030000 	   -0.7039670000
C   	   -3.5095320000 	   -1.7593890000 	    0.2725640000
C   	   -2.1102900000 	   -2.2592190000 	   -0.0382720000
N   	   -1.1373600000 	   -1.1597110000 	   -0.1680600000
C   	   -1.4846680000 	    0.1293420000 	   -0.4282230000
N   	   -0.6246060000 	    1.0950020000 	   -0.5411860000
C   	    0.7121250000 	    0.8090970000 	   -0.4050380000
C   	    1.6319770000 	    2.0025420000 	   -0.5009220000
C   	    1.0475200000 	    3.4106560000 	   -0.7371880000
C   	    2.1061870000 	    3.9701390000 	    0.2372630000
C   	    2.2708060000 	    2.5456180000 	    0.8059400000
C   	    1.1812210000 	   -0.4572980000 	   -0.1788840000
C   	    2.6395340000 	   -0.7912510000 	   -0.0307140000
C   	    3.1402200000 	   -1.5472380000 	    1.2286560000
C   	    4.1594620000 	   -2.2781340000 	    0.3284420000
C   	    3.2899470000 	   -1.9069760000 	   -0.8922300000
C   	    0.2225680000 	   -1.5417380000 	   -0.0651410000
O   	    0.4871090000 	   -2.7250740000 	    0.1155250000
H   	   -2.5533070000 	    2.1778620000 	    0.8735440000
H   	   -2.9916410000 	    1.1838480000 	   -1.4208390000
H   	   -3.8751460000 	   -1.0425840000 	   -1.7316110000
H   	   -4.9258490000 	   -0.3117900000 	   -0.5059710000
H   	   -4.1995390000 	   -2.6074850000 	    0.2155440000
H   	   -3.5596160000 	   -1.3734760000 	    1.2980210000
H   	   -2.0963820000 	   -2.8296340000 	   -0.9748180000
H   	   -1.7258810000 	   -2.9231240000 	    0.7375700000
H   	    2.4209320000 	    1.7999580000 	   -1.2347410000
H   	    0.0370420000 	    3.4819360000 	   -0.3269380000
H   	    1.0389900000 	    3.7862860000 	   -1.7646490000
H   	    1.7938450000 	    4.7578780000 	    0.9286580000
H   	    3.0093670000 	    4.2998740000 	   -0.2865510000
H   	    1.6084730000 	    2.3728010000 	    1.6612410000
H   	    3.2768630000 	    2.1986740000 	    1.0629230000
H   	    3.2315890000 	    0.1217650000 	   -0.1403240000
H   	    2.3775490000 	   -2.2344720000 	    1.6011440000
H   	    3.5224960000 	   -0.9368390000 	    2.0535900000
H   	    4.3282550000 	   -3.3412640000 	    0.5205310000
H   	    5.1273960000 	   -1.7654420000 	    0.3098750000
H   	    2.5694760000 	   -2.6945170000 	   -1.1205970000
H   	    3.7976360000 	   -1.5924480000 	   -1.8099010000
