29
tauto -799.521060213
C   	   -4.7296270000 	    1.1769780000 	    0.5437050000
C   	   -4.6604210000 	   -0.3372660000 	    0.4906930000
O   	   -3.6091660000 	   -0.7658750000 	   -0.3943620000
C   	   -2.3743890000 	   -0.7548130000 	    0.1219710000
C   	   -1.3430410000 	   -1.1644120000 	   -0.9109320000
C   	   -0.0144840000 	   -0.5453750000 	   -0.5941440000
N   	    1.0170230000 	   -1.2766160000 	   -0.3805750000
C   	    2.2328410000 	   -0.6582170000 	   -0.0894420000
C   	    3.3607560000 	   -1.4525660000 	    0.1495310000
C   	    4.5795780000 	   -0.8708550000 	    0.4458070000
C   	    4.6865420000 	    0.5240440000 	    0.5085880000
C   	    3.5851840000 	    1.3294500000 	    0.2762300000
C   	    2.3544650000 	    0.7375280000 	   -0.0236490000
N   	    1.2175580000 	    1.4902210000 	   -0.2721780000
C   	   -0.0060280000 	    0.9484180000 	   -0.5721940000
O   	   -0.9912990000 	    1.6268020000 	   -0.8118390000
O   	   -2.1122800000 	   -0.4851980000 	    1.2704990000
H   	   -5.5558150000 	    1.4915790000 	    1.1902710000
H   	   -4.8916700000 	    1.5906660000 	   -0.4560020000
H   	   -3.7976500000 	    1.5854780000 	    0.9434590000
H   	   -5.5687550000 	   -0.7703610000 	    0.0651990000
H   	   -4.4843120000 	   -0.7636410000 	    1.4816630000
H   	   -1.6918840000 	   -0.8557200000 	   -1.9008010000
H   	   -1.2352110000 	   -2.2530590000 	   -0.8984260000
H   	    3.2380110000 	   -2.5302430000 	    0.0935870000
H   	    5.4511590000 	   -1.4915640000 	    0.6310430000
H   	    5.6429300000 	    0.9842500000 	    0.7415000000
H   	    3.6667910000 	    2.4129320000 	    0.3254170000
H   	    1.2580420000 	    2.5011390000 	   -0.2389970000
