38
tauto -954.524422241
C   	   -5.5261310000 	    0.8999090000 	    0.7962780000
C   	   -5.0140410000 	    0.3785660000 	   -0.5330940000
O   	   -3.5763660000 	    0.3400440000 	   -0.5563640000
C   	   -3.0107090000 	   -0.7172250000 	    0.0244010000
C   	   -1.5204270000 	   -0.7013610000 	   -0.0239920000
C   	   -0.8761160000 	   -1.7769050000 	    0.5119670000
N   	    0.4706170000 	   -1.9406070000 	    0.5549590000
C   	    1.2042150000 	   -0.9795220000 	    0.0526590000
C   	    2.7049200000 	   -1.2029430000 	    0.1392750000
C   	    3.4431950000 	   -0.4633440000 	    1.2709290000
C   	    3.5977050000 	    1.0606620000 	    1.1982280000
C   	    2.2966020000 	    1.8701740000 	    1.3469430000
C   	    1.6940740000 	    2.3523000000 	    0.0259570000
C   	    1.5080740000 	    1.2500690000 	   -1.0111050000
C   	    3.4240570000 	   -1.1514830000 	   -1.1974410000
O   	    4.5738300000 	   -0.8077190000 	   -1.3264240000
N   	    0.6813080000 	    0.1435690000 	   -0.5073140000
C   	   -0.7317910000 	    0.3849070000 	   -0.5787930000
O   	   -1.1226910000 	    1.4279470000 	   -1.0650380000
O   	   -3.6327710000 	   -1.6236920000 	    0.5403230000
H   	   -6.6156080000 	    1.0051880000 	    0.7608560000
H   	   -5.0906090000 	    1.8792590000 	    1.0164070000
H   	   -5.2719710000 	    0.2057300000 	    1.6016780000
H   	   -5.2754580000 	    1.0493270000 	   -1.3543640000
H   	   -5.4001420000 	   -0.6226530000 	   -0.7415560000
H   	   -1.4710770000 	   -2.5794490000 	    0.9414480000
H   	    2.7469830000 	   -2.2697960000 	    0.4023870000
H   	    4.4441350000 	   -0.9061520000 	    1.3111670000
H   	    2.9437790000 	   -0.7284690000 	    2.2113750000
H   	    4.1218660000 	    1.3366900000 	    0.2738970000
H   	    4.2793420000 	    1.3330990000 	    2.0121900000
H   	    2.4839030000 	    2.7541310000 	    1.9670100000
H   	    1.5547620000 	    1.2772170000 	    1.9004500000
H   	    2.3530030000 	    3.1068260000 	   -0.4231400000
H   	    0.7272460000 	    2.8356910000 	    0.2014470000
H   	    2.4739120000 	    0.8574130000 	   -1.3284840000
H   	    0.9980580000 	    1.6441810000 	   -1.8907600000
H   	    2.8366180000 	   -1.5144410000 	   -2.0687780000
