10
tauto -305.187396953
O   	   -2.0372250000 	   -0.0353160000 	    0.0000280000
C   	   -0.8392720000 	    0.0198750000 	   -0.0000860000
O   	   -0.0470670000 	   -1.0951130000 	    0.0000040000
C   	    1.3232810000 	   -0.7195600000 	    0.0000190000
C   	    1.3171210000 	    0.7810360000 	   -0.0000450000
C   	    0.0585200000 	    1.2059670000 	    0.0000130000
H   	    1.8082190000 	   -1.1383350000 	   -0.8891870000
H   	    1.8081440000 	   -1.1380650000 	    0.8894110000
H   	    2.2229680000 	    1.3774280000 	   -0.0000360000
H   	   -0.3228970000 	    2.2185010000 	    0.0001450000
