32
tauto -875.921717489
C   	   -2.9062420000 	   -2.3144560000 	   -0.4025460000
C   	   -3.4853770000 	   -0.9830090000 	   -0.8405030000
O   	   -2.9302280000 	    0.0938430000 	   -0.0524620000
C   	   -1.7259600000 	    0.5075630000 	   -0.4047990000
C   	   -1.1936220000 	    1.6103740000 	    0.5179940000
C   	    0.2728270000 	    1.5252880000 	    0.9535370000
C   	    1.1234580000 	    2.6023640000 	    0.2675770000
C   	    1.6355330000 	    2.0779210000 	   -1.0675430000
C   	    2.5095580000 	    0.8576940000 	   -0.8377990000
N   	    1.8346530000 	   -0.1637360000 	   -0.0176300000
C   	    0.7894060000 	    0.1094610000 	    0.8062270000
N   	    0.1445600000 	   -0.7884220000 	    1.4970880000
C   	    0.5604490000 	   -2.0856720000 	    1.3646040000
C   	    1.6024080000 	   -2.4700420000 	    0.5915860000
C   	    2.3435730000 	   -1.4832450000 	   -0.1603250000
O   	    3.3120510000 	   -1.6882890000 	   -0.8720430000
O   	   -1.8898540000 	    2.5481000000 	    0.8149570000
O   	   -1.0877690000 	    0.1318920000 	   -1.3634460000
H   	   -3.3929190000 	   -3.1286710000 	   -0.9493010000
H   	   -3.0688950000 	   -2.4683890000 	    0.6684310000
H   	   -1.8322450000 	   -2.3550440000 	   -0.6074790000
H   	   -4.5589350000 	   -0.9233770000 	   -0.6528830000
H   	   -3.2877410000 	   -0.7836120000 	   -1.8965500000
H   	    0.2295400000 	    1.7203110000 	    2.0304460000
H   	    1.9735360000 	    2.8544310000 	    0.9138510000
H   	    0.5249800000 	    3.5117570000 	    0.1558190000
H   	    2.2300200000 	    2.8382420000 	   -1.5843990000
H   	    0.7954370000 	    1.8087940000 	   -1.7179580000
H   	    3.4460790000 	    1.1306960000 	   -0.3362110000
H   	    2.7830680000 	    0.3650640000 	   -1.7720610000
H   	   -0.0085920000 	   -2.8129610000 	    1.9403800000
H   	    1.9225120000 	   -3.5019460000 	    0.5075970000
