40
tauto -1009.89399764
C   	   -4.9007240000 	    0.9611780000 	   -0.7325180000
C   	   -4.3817490000 	    0.5040760000 	    0.6172520000
O   	   -2.9759800000 	    0.1995160000 	    0.5577500000
C   	   -2.6648610000 	   -1.0133890000 	    0.0952460000
C   	   -1.1777860000 	   -1.2593040000 	    0.0668410000
N   	   -0.3569730000 	   -0.2302590000 	    0.4278090000
C   	    0.9273790000 	   -0.4440680000 	    0.3947110000
N   	    1.4847940000 	   -1.6331930000 	    0.0327300000
C   	    2.9360890000 	   -1.8956320000 	    0.0372890000
C   	    3.7560210000 	   -0.6230200000 	   -0.0336700000
C   	    3.2749270000 	    0.3707430000 	    1.0147990000
C   	    1.8027290000 	    0.7358860000 	    0.7877800000
C   	    1.6755540000 	    1.8159610000 	   -0.3073390000
N   	    0.7995920000 	    2.8333400000 	   -0.0969560000
C   	    0.7260230000 	    3.8970520000 	   -1.0840500000
C   	   -0.1135230000 	    2.9296510000 	    1.0351030000
O   	    2.3805710000 	    1.7465830000 	   -1.3076780000
C   	   -0.7363240000 	   -2.4833010000 	   -0.3051030000
C   	    0.6835500000 	   -2.7559260000 	   -0.3125900000
O   	    1.2093150000 	   -3.8232230000 	   -0.5751840000
O   	   -3.4723870000 	   -1.8429650000 	   -0.2563930000
H   	   -5.9506790000 	    1.2595010000 	   -0.6448550000
H   	   -4.8332950000 	    0.1509360000 	   -1.4632930000
H   	   -4.3265490000 	    1.8185650000 	   -1.0966530000
H   	   -4.9196450000 	   -0.3794430000 	    0.9705110000
H   	   -4.4535650000 	    1.2967270000 	    1.3655300000
H   	    3.1300010000 	   -2.5599170000 	   -0.8062880000
H   	    3.1624320000 	   -2.4667880000 	    0.9462610000
H   	    3.6710960000 	   -0.1657080000 	   -1.0225350000
H   	    4.8067150000 	   -0.8838500000 	    0.1325900000
H   	    3.8814270000 	    1.2811600000 	    0.9949180000
H   	    3.3800080000 	   -0.0692070000 	    2.0156460000
H   	    1.3773250000 	    1.1113460000 	    1.7214430000
H   	    1.5020090000 	    3.7348300000 	   -1.8306410000
H   	    0.8778130000 	    4.8693650000 	   -0.6009020000
H   	   -0.2539560000 	    3.8984790000 	   -1.5762690000
H   	   -0.5946620000 	    1.9686350000 	    1.2290970000
H   	   -0.8962270000 	    3.6462910000 	    0.7731730000
H   	    0.3898610000 	    3.2993790000 	    1.9383420000
H   	   -1.4179820000 	   -3.2782360000 	   -0.5816290000
