32
tauto -785.411966897
O   	    0.1004420000 	    2.7376930000 	    0.2086920000
C   	    1.0915090000 	    1.8512450000 	    0.1386760000
C   	    0.8870440000 	    0.4734980000 	    0.0149090000
C   	   -0.4687050000 	   -0.0481060000 	   -0.0288460000
N   	   -1.5073830000 	    0.7091870000 	    0.0238640000
C   	   -2.7939380000 	    0.1263200000 	    0.0260590000
C   	   -3.7994000000 	    0.7471750000 	   -0.7193510000
C   	   -5.0794370000 	    0.2099810000 	   -0.7496480000
C   	   -5.3770840000 	   -0.9397740000 	   -0.0205140000
C   	   -4.3846150000 	   -1.5446550000 	    0.7436980000
C   	   -3.0979320000 	   -1.0156330000 	    0.7720230000
C   	    2.0328470000 	   -0.4052810000 	   -0.0608200000
C   	    1.9331730000 	   -1.8151610000 	   -0.1989470000
C   	    3.0527730000 	   -2.6086740000 	   -0.2618270000
C   	    4.3435600000 	   -2.0472390000 	   -0.1911760000
C   	    4.4739000000 	   -0.6889110000 	   -0.0613440000
C   	    3.3363980000 	    0.1507580000 	    0.0044370000
C   	    3.4855400000 	    1.5641640000 	    0.1358800000
C   	    2.4083550000 	    2.3890500000 	    0.1988980000
H   	   -0.7576290000 	    2.2375570000 	    0.1522670000
H   	   -0.6013760000 	   -1.1308550000 	   -0.1174860000
H   	   -3.5553900000 	    1.6463660000 	   -1.2786940000
H   	   -5.8517310000 	    0.6946440000 	   -1.3414800000
H   	   -6.3814030000 	   -1.3543140000 	   -0.0385510000
H   	   -4.6132260000 	   -2.4295820000 	    1.3323260000
H   	   -2.3338370000 	   -1.4686520000 	    1.3993960000
H   	    0.9617520000 	   -2.2946620000 	   -0.2626560000
H   	    2.9386170000 	   -3.6844090000 	   -0.3694440000
H   	    5.2208400000 	   -2.6861530000 	   -0.2408810000
H   	    5.4592880000 	   -0.2302420000 	   -0.0063980000
H   	    4.4914730000 	    1.9764480000 	    0.1844410000
H   	    2.5068460000 	    3.4654620000 	    0.2979350000
