32
tauto -838.825020533
C   	   -3.1251050000 	    2.7569030000 	   -0.3412870000
C   	   -3.0923600000 	    1.7626260000 	    0.8033920000
O   	   -2.1583800000 	    0.6986530000 	    0.5426510000
C   	   -2.5996300000 	   -0.3004260000 	   -0.2360450000
C   	   -1.5646480000 	   -1.4118400000 	   -0.3945630000
C   	   -1.6708250000 	   -2.0384790000 	   -1.7820390000
C   	   -0.1745700000 	   -0.9258070000 	   -0.0599400000
N   	    0.6141930000 	   -0.5244810000 	   -0.9885580000
C   	    1.8848010000 	   -0.0594030000 	   -0.6538990000
C   	    2.7400230000 	    0.3836730000 	   -1.6698550000
C   	    4.0033880000 	    0.8580590000 	   -1.3676160000
C   	    4.4300230000 	    0.8961650000 	   -0.0343930000
C   	    3.6019090000 	    0.4626180000 	    0.9865650000
C   	    2.3260990000 	   -0.0179040000 	    0.6764320000
N   	    1.4529590000 	   -0.4738520000 	    1.6505090000
C   	    0.1938270000 	   -0.9570030000 	    1.3909220000
O   	   -0.5371540000 	   -1.3819350000 	    2.2686190000
O   	   -3.7000340000 	   -0.3334840000 	   -0.7326520000
H   	   -3.7862610000 	    3.5928200000 	   -0.0892260000
H   	   -3.5029510000 	    2.2794650000 	   -1.2490890000
H   	   -2.1244390000 	    3.1546270000 	   -0.5364420000
H   	   -4.0790210000 	    1.3265490000 	    0.9790410000
H   	   -2.7284600000 	    2.2202210000 	    1.7260620000
H   	   -1.8373520000 	   -2.1469290000 	    0.3740240000
H   	   -1.3394320000 	   -1.3335800000 	   -2.5486240000
H   	   -2.7082130000 	   -2.3159430000 	   -1.9797070000
H   	   -1.0407070000 	   -2.9302950000 	   -1.8459090000
H   	    2.3729860000 	    0.3399890000 	   -2.6912180000
H   	    4.6631700000 	    1.2003810000 	   -2.1592950000
H   	    5.4218010000 	    1.2694520000 	    0.2061740000
H   	    3.9322350000 	    0.4909200000 	    2.0225420000
H   	    1.7335350000 	   -0.4803170000 	    2.6230070000
