41
tauto -1143.05413111
C   	   -4.0198140000 	    3.0610300000 	    1.6362270000
C   	   -3.1075620000 	    3.0621000000 	    0.4257650000
O   	   -3.3173860000 	    1.8838040000 	   -0.3852420000
C   	   -2.7167190000 	    0.7815310000 	    0.0223140000
C   	   -3.0407270000 	   -0.4193440000 	   -0.8793930000
C   	   -1.9744210000 	   -1.5065620000 	   -1.0460270000
C   	   -2.3328380000 	   -2.7673560000 	   -0.2478440000
C   	   -1.7692370000 	   -2.6562120000 	    1.1621620000
C   	   -0.2560550000 	   -2.5458680000 	    1.1023260000
N   	    0.1918430000 	   -1.4778310000 	    0.1888230000
C   	   -0.5884570000 	   -0.9599370000 	   -0.7837530000
N   	   -0.2299580000 	    0.0275390000 	   -1.5655550000
C   	    1.0031610000 	    0.5500210000 	   -1.3552600000
C   	    1.8973550000 	    0.1015340000 	   -0.4261640000
C   	    3.2044630000 	    0.8113880000 	   -0.3547930000
O   	    4.0019940000 	    0.3679420000 	    0.6174400000
C   	    5.2743230000 	    1.0259090000 	    0.7392560000
C   	    6.2773050000 	    0.4696790000 	   -0.2535070000
O   	    3.4947660000 	    1.7187000000 	   -1.1089250000
C   	    1.5294600000 	   -1.0193760000 	    0.4223250000
O   	    2.1951570000 	   -1.5824120000 	    1.2683880000
O   	   -4.1382830000 	   -0.5373020000 	   -1.3613570000
O   	   -2.0276450000 	    0.6613770000 	    1.0117220000
H   	   -3.9053190000 	    4.0028100000 	    2.1825810000
H   	   -3.7644920000 	    2.2390780000 	    2.3101610000
H   	   -5.0656990000 	    2.9630140000 	    1.3308730000
H   	   -2.0540470000 	    3.1007000000 	    0.7154340000
H   	   -3.3301590000 	    3.8891510000 	   -0.2505810000
H   	   -2.0070680000 	   -1.7276340000 	   -2.1182570000
H   	   -1.9000150000 	   -3.6426470000 	   -0.7478600000
H   	   -3.4191330000 	   -2.8999330000 	   -0.2540610000
H   	   -2.0276250000 	   -3.5381650000 	    1.7572110000
H   	   -2.1812360000 	   -1.7767180000 	    1.6694560000
H   	    0.1970280000 	   -3.4866720000 	    0.7677670000
H   	    0.1774150000 	   -2.3168430000 	    2.0766170000
H   	    1.2881820000 	    1.3852310000 	   -1.9906630000
H   	    5.5782940000 	    0.8285230000 	    1.7696220000
H   	    5.1334640000 	    2.1009320000 	    0.5996860000
H   	    6.3791930000 	   -0.6127670000 	   -0.1304110000
H   	    7.2574540000 	    0.9306510000 	   -0.0911390000
H   	    5.9603310000 	    0.6852330000 	   -1.2773290000
