34
tauto -802.835342117
C   	   -4.2451190000 	    0.0591900000 	   -0.0002340000
C   	   -2.9733660000 	    0.9182170000 	   -0.0000990000
C   	   -3.3544110000 	    2.4001350000 	   -0.0001440000
C   	   -2.1345400000 	    0.6098800000 	   -1.2619500000
C   	   -1.6138280000 	   -0.8097600000 	   -1.2488380000
C   	   -0.7965170000 	   -1.1822890000 	    0.0001010000
N   	    0.4131520000 	   -0.3499920000 	    0.0001510000
N   	    1.4464880000 	   -1.0355860000 	    0.0000610000
C   	    2.6639600000 	   -0.2826260000 	    0.0000360000
C   	    3.8276140000 	   -1.0466010000 	   -0.0001900000
C   	    5.0694900000 	   -0.4199020000 	   -0.0002560000
C   	    5.1418550000 	    0.9691370000 	   -0.0000810000
C   	    3.9731900000 	    1.7325200000 	    0.0001630000
C   	    2.7323100000 	    1.1125010000 	    0.0002180000
O   	   -1.8313780000 	   -1.6238500000 	   -2.1136510000
C   	   -2.1348150000 	    0.6098710000 	    1.2618980000
C   	   -1.6139150000 	   -0.8097160000 	    1.2489590000
O   	   -1.8312740000 	   -1.6236740000 	    2.1139410000
H   	   -4.8525610000 	    0.2696090000 	   -0.8876930000
H   	   -4.8528140000 	    0.2697150000 	    0.8870290000
H   	   -4.0219330000 	   -1.0148130000 	   -0.0001400000
H   	   -3.9498740000 	    2.6482040000 	   -0.8865180000
H   	   -2.4631490000 	    3.0387810000 	   -0.0001100000
H   	   -3.9499680000 	    2.6482420000 	    0.8861590000
H   	   -1.2690390000 	    1.2860890000 	   -1.2940700000
H   	   -2.7257080000 	    0.7535430000 	   -2.1716320000
H   	   -0.5587500000 	   -2.2489520000 	    0.0001150000
H   	    3.7351740000 	   -2.1289920000 	   -0.0003260000
H   	    5.9785450000 	   -1.0150300000 	   -0.0004330000
H   	    6.1101890000 	    1.4628290000 	   -0.0001390000
H   	    4.0348370000 	    2.8176800000 	    0.0003150000
H   	    1.8128980000 	    1.6893890000 	    0.0004050000
H   	   -2.7261790000 	    0.7534630000 	    2.1714670000
H   	   -1.2693640000 	    1.2861410000 	    1.2942760000
