34
tauto -711.654168912
C   	   -1.9384400000 	   -1.1535080000 	    1.6901620000
C   	   -2.4844730000 	   -1.3109490000 	    0.2639750000
C   	   -3.8026350000 	   -2.0863530000 	    0.2621380000
C   	   -2.6993490000 	    0.0790860000 	   -0.3253100000
C   	   -1.7118860000 	    0.5537230000 	   -1.3889520000
C   	   -0.3068530000 	    0.6149910000 	   -0.8273590000
N   	    0.4580980000 	   -0.4232370000 	   -1.0642360000
C   	    1.7142850000 	   -0.4507630000 	   -0.5315460000
C   	    2.5362670000 	   -1.5771350000 	   -0.7938110000
C   	    3.8004790000 	   -1.6453660000 	   -0.2711420000
C   	    4.3019530000 	   -0.5939080000 	    0.5358970000
C   	    3.5274110000 	    0.5044320000 	    0.8011410000
C   	    2.2147590000 	    0.6000550000 	    0.2707870000
C   	    1.3571410000 	    1.7061550000 	    0.5014890000
C   	    0.0982100000 	    1.7404820000 	   -0.0342840000
C   	   -0.8293930000 	    2.9072330000 	    0.1851100000
O   	   -3.6020320000 	    0.7940740000 	    0.0596910000
H   	   -1.7959450000 	   -2.1367040000 	    2.1511400000
H   	   -2.6455400000 	   -0.5826070000 	    2.3017930000
H   	   -0.9735840000 	   -0.6333060000 	    1.7015360000
H   	   -1.7348250000 	   -1.8343290000 	   -0.3414650000
H   	   -4.5635610000 	   -1.5309090000 	    0.8190650000
H   	   -3.6694520000 	   -3.0668660000 	    0.7315200000
H   	   -4.1765030000 	   -2.2452460000 	   -0.7553770000
H   	   -2.0532980000 	    1.5248540000 	   -1.7570990000
H   	   -1.7072850000 	   -0.1700900000 	   -2.2104380000
H   	    2.1263100000 	   -2.3681780000 	   -1.4151100000
H   	    4.4276520000 	   -2.5097650000 	   -0.4732600000
H   	    5.3063360000 	   -0.6644550000 	    0.9450830000
H   	    3.9058150000 	    1.3157630000 	    1.4197520000
H   	    1.7127190000 	    2.5332730000 	    1.1151310000
H   	   -0.4032660000 	    3.6080990000 	    0.9089000000
H   	   -1.8104090000 	    2.5862970000 	    0.5508580000
H   	   -1.0004520000 	    3.4551840000 	   -0.7496680000
