28
tauto -703.289015184
C   	    3.8854840000 	    0.5692880000 	    2.0033690000
C   	    4.3322230000 	   -0.2774530000 	    0.8145800000
C   	    3.5828130000 	    0.0559320000 	   -0.4779690000
C   	    4.0836950000 	   -0.7697530000 	   -1.6602420000
N   	    2.1687490000 	   -0.2777440000 	   -0.2804500000
N   	    1.4101800000 	    0.6836960000 	   -0.4671050000
C   	    0.0179390000 	    0.3722270000 	   -0.2864010000
C   	   -0.8592070000 	    1.4343240000 	   -0.4893940000
C   	   -2.2278290000 	    1.2479740000 	   -0.3438650000
C   	   -0.4631850000 	   -0.8910900000 	    0.0658130000
C   	   -1.8262750000 	   -1.0886180000 	    0.2142120000
C   	   -2.6840520000 	   -0.0138740000 	    0.0058340000
N   	   -4.1322740000 	   -0.2247210000 	    0.1620680000
O   	   -4.8658540000 	    0.7289870000 	   -0.0304760000
O   	   -4.5096680000 	   -1.3404790000 	    0.4743490000
H   	    4.4577660000 	    0.3186090000 	    2.9021290000
H   	    2.8249110000 	    0.4100270000 	    2.2257400000
H   	    4.0260840000 	    1.6374600000 	    1.8011870000
H   	    4.1905470000 	   -1.3436680000 	    1.0337640000
H   	    5.4038120000 	   -0.1305830000 	    0.6298930000
H   	    3.6688040000 	    1.1295840000 	   -0.6975880000
H   	    3.9477300000 	   -1.8392880000 	   -1.4671150000
H   	    5.1488810000 	   -0.5798860000 	   -1.8274070000
H   	    3.5404740000 	   -0.5132540000 	   -2.5752320000
H   	   -0.4488590000 	    2.4019160000 	   -0.7618580000
H   	   -2.9372620000 	    2.0532330000 	   -0.4950270000
H   	    0.2427150000 	   -1.7006530000 	    0.2172020000
H   	   -2.2376430000 	   -2.0539260000 	    0.4861260000
