26
tauto -631.811087707
O   	   -1.5614910000 	    1.9484780000 	    0.4695080000
C   	   -2.2929430000 	    0.8599420000 	    0.2024930000
C   	   -1.7117840000 	   -0.3894310000 	   -0.1097380000
C   	   -0.2667150000 	   -0.5679640000 	   -0.1593760000
N   	    0.5572360000 	    0.3869070000 	    0.0690120000
C   	    1.9469320000 	    0.1300250000 	    0.0406670000
C   	    2.5076360000 	   -1.0176400000 	    0.6068210000
C   	    3.8836240000 	   -1.2177960000 	    0.5571720000
C   	    4.7092400000 	   -0.2778940000 	   -0.0510480000
C   	    4.1521400000 	    0.8754790000 	   -0.5998910000
C   	    2.7805500000 	    1.0854580000 	   -0.5453010000
C   	   -2.5492070000 	   -1.4824760000 	   -0.3819180000
C   	   -3.9252600000 	   -1.3616310000 	   -0.3471770000
C   	   -4.4872530000 	   -0.1181510000 	   -0.0347280000
C   	   -3.6883840000 	    0.9783690000 	    0.2363570000
H   	   -0.6087940000 	    1.6970410000 	    0.3986230000
H   	    0.0925170000 	   -1.5742610000 	   -0.4174290000
H   	    1.8680370000 	   -1.7365420000 	    1.1133570000
H   	    4.3119580000 	   -2.1103240000 	    1.0061720000
H   	    5.7837200000 	   -0.4360990000 	   -0.0868300000
H   	    4.7915490000 	    1.6194390000 	   -1.0680910000
H   	    2.3335340000 	    1.9832720000 	   -0.9635110000
H   	   -2.0904020000 	   -2.4402290000 	   -0.6229100000
H   	   -4.5603700000 	   -2.2162270000 	   -0.5596520000
H   	   -5.5685220000 	   -0.0076110000 	   -0.0034500000
H   	   -4.1134140000 	    1.9476340000 	    0.4785760000
