38
tauto -864.020884718
C   	   -0.4239860000 	    3.2803170000 	    0.1461910000
C   	   -0.2542010000 	    1.7820690000 	    0.0326730000
C   	    1.1203620000 	    1.2410980000 	    0.0267450000
C   	    2.2519430000 	    2.1046250000 	    0.1487600000
C   	    3.5300230000 	    1.6358550000 	    0.1564590000
C   	    3.7818210000 	    0.2373580000 	    0.0386010000
C   	    5.0950530000 	   -0.2965200000 	    0.0415770000
C   	    5.3038630000 	   -1.6471580000 	   -0.0752490000
C   	    4.2086360000 	   -2.5314320000 	   -0.2009640000
C   	    2.9267860000 	   -2.0430650000 	   -0.2066580000
C   	    2.6904210000 	   -0.6518190000 	   -0.0866520000
C   	    1.3507580000 	   -0.1324590000 	   -0.0903090000
O   	    0.3727250000 	   -1.0285390000 	   -0.2123600000
N   	   -1.2347350000 	    0.9551590000 	   -0.0622890000
C   	   -2.6210670000 	    1.3872260000 	   -0.0536620000
C   	   -3.5748370000 	    0.2107370000 	   -0.0094800000
C   	   -3.2544300000 	   -0.9552870000 	    0.6862280000
C   	   -4.1628560000 	   -2.0067360000 	    0.7575560000
C   	   -5.4051430000 	   -1.9042390000 	    0.1382570000
C   	   -5.7322890000 	   -0.7442820000 	   -0.5570130000
C   	   -4.8199220000 	    0.3036630000 	   -0.6306900000
H   	    0.0959450000 	    3.7822390000 	   -0.6763690000
H   	    0.0120530000 	    3.6462580000 	    1.0816350000
H   	   -1.4714910000 	    3.5809200000 	    0.1168280000
H   	    2.0898290000 	    3.1744610000 	    0.2418600000
H   	    4.3700230000 	    2.3193150000 	    0.2521430000
H   	    5.9359810000 	    0.3872310000 	    0.1378410000
H   	    6.3165290000 	   -2.0430350000 	   -0.0715820000
H   	    4.3858920000 	   -3.5995520000 	   -0.2945430000
H   	    2.0736090000 	   -2.7069740000 	   -0.3025830000
H   	   -0.4839700000 	   -0.5074710000 	   -0.2214950000
H   	   -2.8403490000 	    1.9919140000 	   -0.9451290000
H   	   -2.8194210000 	    2.0290480000 	    0.8176010000
H   	   -2.2828330000 	   -1.0431740000 	    1.1663380000
H   	   -3.8971180000 	   -2.9114030000 	    1.2987630000
H   	   -6.1137610000 	   -2.7267050000 	    0.1930460000
H   	   -6.6970860000 	   -0.6564890000 	   -1.0503660000
H   	   -5.0780870000 	    1.2059100000 	   -1.1833020000
