31
tauto -801.401350184
O   	   -0.9206480000 	    2.0737450000 	    0.0021860000
C   	   -1.3350890000 	    0.7864430000 	    0.0035630000
C   	   -2.7296990000 	    0.4484760000 	   -0.0048160000
C   	   -3.7555240000 	    1.4299570000 	   -0.0404530000
C   	   -5.0785690000 	    1.0722430000 	   -0.0348190000
C   	   -5.4443410000 	   -0.2917880000 	    0.0033690000
C   	   -4.4755130000 	   -1.2601390000 	    0.0250600000
C   	   -3.0980780000 	   -0.9219110000 	    0.0172370000
C   	   -2.0870310000 	   -1.9252560000 	    0.0250930000
C   	   -0.7711200000 	   -1.5763620000 	    0.0108510000
C   	   -0.3770170000 	   -0.2114280000 	    0.0031200000
N   	    0.9741150000 	    0.2126780000 	    0.0077820000
N   	    1.8068690000 	   -0.7149100000 	   -0.0177690000
C   	    3.1643650000 	   -0.2734950000 	   -0.0085700000
C   	    3.5521460000 	    1.0689170000 	    0.0256090000
C   	    4.9021950000 	    1.3883100000 	    0.0319810000
C   	    5.8668800000 	    0.3800620000 	    0.0043390000
C   	    5.4777640000 	   -0.9552250000 	   -0.0299790000
C   	    4.1254270000 	   -1.2812130000 	   -0.0365260000
H   	   -1.6776570000 	    2.6566330000 	    0.1319880000
H   	   -3.5161570000 	    2.4909680000 	   -0.0927700000
H   	   -5.8481660000 	    1.8384650000 	   -0.0654130000
H   	   -6.4953900000 	   -0.5678610000 	    0.0093110000
H   	   -4.7482370000 	   -2.3130240000 	    0.0467920000
H   	   -2.3854780000 	   -2.9705990000 	    0.0392580000
H   	    0.0164550000 	   -2.3223200000 	    0.0129510000
H   	    2.7838620000 	    1.8352310000 	    0.0463400000
H   	    5.2090020000 	    2.4309410000 	    0.0589140000
H   	    6.9227950000 	    0.6387060000 	    0.0097780000
H   	    6.2265500000 	   -1.7425990000 	   -0.0516650000
H   	    3.7899570000 	   -2.3144300000 	   -0.0634270000
