26
tauto -665.030070971
C   	   -2.6843640000 	    2.3366420000 	   -0.4465530000
N   	   -2.6496420000 	    0.9712840000 	    0.0172540000
C   	   -1.6955190000 	    0.0190710000 	   -0.4935070000
N   	   -0.3665860000 	    0.2448290000 	    0.0435670000
N   	    0.5083160000 	   -0.1295910000 	   -0.7542620000
C   	    1.8452790000 	   -0.0175370000 	   -0.2591630000
C   	    2.1666560000 	    0.2596000000 	    1.0711740000
C   	    3.5003440000 	    0.3479180000 	    1.4441710000
C   	    4.5097710000 	    0.1603230000 	    0.4990200000
C   	    4.1850230000 	   -0.1234590000 	   -0.8237320000
C   	    2.8496780000 	   -0.2187140000 	   -1.2015990000
C   	   -3.6979340000 	    0.2982860000 	    0.5654090000
C   	   -3.5385390000 	   -1.0491770000 	    0.6138190000
C   	   -2.2541010000 	   -1.3579130000 	    0.0090200000
O   	   -1.6575170000 	   -2.4015210000 	   -0.1268370000
H   	   -1.7074760000 	    2.8031900000 	   -0.2872040000
H   	   -3.4286680000 	    2.8937380000 	    0.1293680000
H   	   -2.9389740000 	    2.4073320000 	   -1.5137050000
H   	   -1.6751050000 	    0.0065870000 	   -1.5934240000
H   	    1.3652270000 	    0.3958850000 	    1.7903050000
H   	    3.7580040000 	    0.5586580000 	    2.4788910000
H   	    5.5522750000 	    0.2296790000 	    0.7992550000
H   	    4.9699910000 	   -0.2758790000 	   -1.5595640000
H   	    2.5625120000 	   -0.4475570000 	   -2.2240490000
H   	   -4.5484900000 	    0.8727540000 	    0.9225700000
H   	   -4.2115430000 	   -1.7681040000 	    1.0579760000
