30
tauto -912.519333236
O   	   -0.6130240000 	   -1.9083930000 	    0.3723810000
C   	   -1.1574070000 	   -0.8677540000 	    0.0853950000
C   	   -0.3638870000 	    0.3502530000 	   -0.3908050000
N   	    0.9908830000 	    0.3120490000 	    0.1392440000
N   	    1.8095290000 	    0.0032710000 	   -0.7378470000
C   	    3.1621430000 	   -0.0927180000 	   -0.2822330000
C   	    3.5664700000 	    0.1555950000 	    1.0311190000
C   	    4.9081150000 	    0.0322460000 	    1.3611180000
C   	    5.8415110000 	   -0.3367730000 	    0.3911330000
C   	    5.4336240000 	   -0.5823380000 	   -0.9158790000
C   	    4.0896830000 	   -0.4587050000 	   -1.2529090000
C   	   -2.6206170000 	   -0.6734140000 	    0.0698130000
C   	   -3.4883840000 	   -1.7649060000 	    0.1707390000
C   	   -4.8589530000 	   -1.5764130000 	    0.1287270000
C   	   -5.3710370000 	   -0.2828440000 	   -0.0071270000
C   	   -4.5253400000 	    0.8140360000 	   -0.0931910000
C   	   -3.1499740000 	    0.6106800000 	   -0.0542290000
O   	   -2.3696250000 	    1.7445040000 	   -0.0980480000
C   	   -1.0030770000 	    1.6878090000 	   -0.0564160000
O   	   -0.3850930000 	    2.6870540000 	    0.1564020000
H   	   -0.3493090000 	    0.2775950000 	   -1.4925270000
H   	    2.8240180000 	    0.4414290000 	    1.7689210000
H   	    5.2323270000 	    0.2236290000 	    2.3806090000
H   	    6.8907590000 	   -0.4325940000 	    0.6586380000
H   	    6.1597470000 	   -0.8696360000 	   -1.6713130000
H   	    3.7369220000 	   -0.6428410000 	   -2.2638000000
H   	   -3.0484600000 	   -2.7528160000 	    0.2761940000
H   	   -5.5322700000 	   -2.4252760000 	    0.1997380000
H   	   -6.4460260000 	   -0.1270750000 	   -0.0411210000
H   	   -4.9058710000 	    1.8265020000 	   -0.1825180000
