38
tauto -864.030164105
C   	    0.6030500000 	    3.7158470000 	   -1.3730160000
C   	    1.2528470000 	    2.9572410000 	   -0.2394230000
C   	    1.2609310000 	    1.4334190000 	   -0.3694470000
C   	    2.3908410000 	    0.8052040000 	    0.4645640000
C   	    2.4817800000 	   -0.6912910000 	    0.2803540000
C   	    1.8829780000 	   -1.5675040000 	    1.1867410000
C   	    1.9465580000 	   -2.9448230000 	    0.9962720000
C   	    2.6124510000 	   -3.4672900000 	   -0.1076750000
C   	    3.2138850000 	   -2.6035590000 	   -1.0189490000
C   	    3.1473150000 	   -1.2284150000 	   -0.8236000000
C   	   -0.1157410000 	    0.9218350000 	    0.0256650000
N   	   -0.8125200000 	    0.3024370000 	   -0.8952800000
C   	   -2.0467900000 	   -0.1782370000 	   -0.5602160000
C   	   -2.7932610000 	   -0.8595840000 	   -1.5564220000
C   	   -4.0350650000 	   -1.3603680000 	   -1.2688810000
C   	   -4.5926340000 	   -1.2042630000 	    0.0246370000
C   	   -3.8927130000 	   -0.5499970000 	    1.0033790000
C   	   -2.6035580000 	   -0.0228820000 	    0.7323970000
C   	   -1.8272240000 	    0.6730130000 	    1.6956300000
C   	   -0.5938160000 	    1.1442820000 	    1.3497390000
O   	    1.7237430000 	    3.5118500000 	    0.7312780000
H   	    1.2709510000 	    3.7005520000 	   -2.2430340000
H   	    0.4235820000 	    4.7514790000 	   -1.0787430000
H   	   -0.3318550000 	    3.2327060000 	   -1.6768150000
H   	    1.3847640000 	    1.1679400000 	   -1.4259360000
H   	    2.2444070000 	    1.0561330000 	    1.5199620000
H   	    3.3350180000 	    1.2785520000 	    0.1703050000
H   	    1.3597430000 	   -1.1650870000 	    2.0525110000
H   	    1.4756190000 	   -3.6114160000 	    1.7146000000
H   	    2.6655440000 	   -4.5427430000 	   -0.2567700000
H   	    3.7389820000 	   -3.0025680000 	   -1.8833710000
H   	    3.6240330000 	   -0.5579820000 	   -1.5375700000
H   	   -2.3412140000 	   -0.9678310000 	   -2.5379400000
H   	   -4.6016990000 	   -1.8833860000 	   -2.0349480000
H   	   -5.5793660000 	   -1.6078890000 	    0.2355580000
H   	   -4.3138120000 	   -0.4246010000 	    1.9989240000
H   	   -2.2277760000 	    0.8283560000 	    2.6955990000
H   	    0.0197750000 	    1.7001580000 	    2.0539210000
