35
tauto -912.08171181
C   	   -0.1735010000 	    3.5611000000 	    0.1284110000
C   	   -0.6254560000 	    2.1392530000 	    0.0940160000
C   	    0.1859950000 	    0.9707100000 	    0.0605440000
N   	    1.5591310000 	    0.8922740000 	    0.0413850000
N   	    2.0031270000 	   -0.2864390000 	   -0.0079820000
C   	    3.4212340000 	   -0.4001420000 	   -0.0283260000
C   	    3.9337920000 	   -1.6930390000 	   -0.1148860000
C   	    5.3090110000 	   -1.8979110000 	   -0.1431800000
C   	    6.1742390000 	   -0.8102470000 	   -0.0836400000
C   	    5.6587770000 	    0.4830630000 	    0.0050580000
C   	    4.2878520000 	    0.6944580000 	    0.0331660000
C   	   -0.7223040000 	   -0.0891800000 	    0.0393920000
O   	   -0.4601870000 	   -1.3862860000 	   -0.0092720000
N   	   -1.8988440000 	    1.8238120000 	    0.0948500000
N   	   -1.9577120000 	    0.4452390000 	    0.0661180000
C   	   -3.2255760000 	   -0.1986100000 	    0.0206360000
C   	   -4.3338150000 	    0.5458570000 	   -0.3816180000
C   	   -5.5823300000 	   -0.0602010000 	   -0.4288220000
C   	   -5.7320620000 	   -1.4009820000 	   -0.0849350000
C   	   -4.6197810000 	   -2.1321080000 	    0.3170200000
C   	   -3.3629520000 	   -1.5386820000 	    0.3795850000
H   	    0.4281110000 	    3.7564760000 	    1.0218510000
H   	   -1.0422040000 	    4.2233250000 	    0.1337790000
H   	    0.4468900000 	    3.7927970000 	   -0.7432370000
H   	    3.2413880000 	   -2.5298980000 	   -0.1606030000
H   	    5.7042850000 	   -2.9078510000 	   -0.2125790000
H   	    7.2494690000 	   -0.9671230000 	   -0.1058900000
H   	    6.3343610000 	    1.3333750000 	    0.0523380000
H   	    3.8715840000 	    1.6940270000 	    0.1022460000
H   	    0.5322930000 	   -1.4197230000 	   -0.0329100000
H   	   -4.2010030000 	    1.5897930000 	   -0.6415790000
H   	   -6.4446150000 	    0.5227330000 	   -0.7417040000
H   	   -6.7102880000 	   -1.8719650000 	   -0.1282350000
H   	   -4.7253160000 	   -3.1777560000 	    0.5938840000
H   	   -2.5021210000 	   -2.1121700000 	    0.7017030000
