37
tauto -955.025222592
O   	    4.1550010000 	    0.3227280000 	    1.2416040000
C   	    3.0977050000 	    0.1874310000 	    0.6491270000
C   	    2.5940110000 	   -1.1461100000 	    0.2302220000
C   	    1.2994650000 	   -1.2959440000 	   -0.2842920000
C   	    0.8733260000 	   -2.5689590000 	   -0.6773300000
C   	    1.7239830000 	   -3.6578610000 	   -0.5658480000
C   	    3.0113180000 	   -3.5053120000 	   -0.0444790000
C   	    3.4400180000 	   -2.2514890000 	    0.3558180000
C   	    2.2902810000 	    1.3723050000 	    0.2276960000
C   	    2.8887210000 	    2.6281220000 	    0.3055710000
C   	    2.2404460000 	    3.7493960000 	   -0.1925640000
C   	    0.9968140000 	    3.6034650000 	   -0.8008530000
C   	    0.3816790000 	    2.3576630000 	   -0.8620570000
C   	    1.0019970000 	    1.2238980000 	   -0.3173690000
C   	    0.3853140000 	   -0.1266180000 	   -0.3338780000
N   	   -0.8716340000 	   -0.4142870000 	   -0.3060370000
N   	   -1.8177230000 	    0.5307100000 	   -0.2208140000
C   	   -3.1456310000 	    0.1396810000 	    0.0285070000
C   	   -4.0625940000 	    1.1200110000 	    0.4139560000
C   	   -5.3917810000 	    0.7812720000 	    0.6332740000
C   	   -5.8206770000 	   -0.5328480000 	    0.4714680000
C   	   -4.9005560000 	   -1.5042390000 	    0.0869160000
C   	   -3.5678330000 	   -1.1798250000 	   -0.1373930000
H   	   -0.1310670000 	   -2.6882780000 	   -1.0712390000
H   	    1.3826080000 	   -4.6387230000 	   -0.8874930000
H   	    3.6709120000 	   -4.3642150000 	    0.0443410000
H   	    4.4304000000 	   -2.0922160000 	    0.7723760000
H   	    3.8788480000 	    2.6910060000 	    0.7477900000
H   	    2.7114410000 	    4.7266260000 	   -0.1331920000
H   	    0.5006820000 	    4.4649630000 	   -1.2404140000
H   	   -0.5651990000 	    2.2629260000 	   -1.3848430000
H   	   -1.5511810000 	    1.4406550000 	    0.1414790000
H   	   -3.7324550000 	    2.1496060000 	    0.5427270000
H   	   -6.0953900000 	    1.5526790000 	    0.9356980000
H   	   -6.8602810000 	   -0.7963670000 	    0.6439470000
H   	   -5.2218130000 	   -2.5349150000 	   -0.0418870000
H   	   -2.8480520000 	   -1.9347730000 	   -0.4331130000
