49
tauto -962.239929438
C   	    3.7302810000 	   -2.4303380000 	    1.2622700000
C   	    2.8600960000 	   -2.4072750000 	   -0.0140760000
C   	    3.7285400000 	   -2.4162670000 	   -1.2917840000
C   	    2.0832030000 	   -3.7329570000 	   -0.0208780000
C   	    1.9092580000 	   -1.1922510000 	   -0.0067690000
C   	    0.5263170000 	   -1.3679450000 	   -0.0047030000
C   	   -0.3463360000 	   -0.2901660000 	    0.0000060000
N   	   -1.7288440000 	   -0.6217560000 	    0.0027600000
N   	   -2.5009830000 	    0.3556940000 	   -0.0172920000
C   	   -3.8863240000 	    0.0106340000 	   -0.0071340000
C   	   -4.7712710000 	    1.0840500000 	   -0.0770390000
C   	   -6.1438340000 	    0.8586360000 	   -0.0715710000
C   	   -6.6310340000 	   -0.4421000000 	    0.0070390000
C   	   -5.7432380000 	   -1.5165270000 	    0.0791520000
C   	   -4.3733430000 	   -1.2968600000 	    0.0722200000
C   	    0.1539240000 	    1.0111020000 	    0.0052430000
C   	    1.5188520000 	    1.2597990000 	    0.0057730000
C   	    2.0636670000 	    2.7002680000 	    0.0154150000
C   	    0.9248600000 	    3.7305510000 	    0.0215840000
C   	    2.9056700000 	    2.9455780000 	    1.2816340000
C   	    2.9078630000 	    2.9629120000 	   -1.2458310000
C   	    2.3821500000 	    0.1370250000 	   -0.0008150000
O   	    3.7209720000 	    0.4160310000 	   -0.0001880000
H   	    4.4105820000 	   -3.2896660000 	    1.2390420000
H   	    3.0911050000 	   -2.5258990000 	    2.1464280000
H   	    4.3414230000 	   -1.5348740000 	    1.4184380000
H   	    4.4097850000 	   -3.2750420000 	   -1.2782730000
H   	    4.3382020000 	   -1.5183930000 	   -1.4393310000
H   	    3.0882290000 	   -2.5034650000 	   -2.1759930000
H   	    2.7941120000 	   -4.5666660000 	   -0.0267110000
H   	    1.4504380000 	   -3.8301340000 	   -0.9094140000
H   	    1.4527890000 	   -3.8407510000 	    0.8680980000
H   	    0.0819180000 	   -2.3566740000 	   -0.0074050000
H   	   -4.3599260000 	    2.0880120000 	   -0.1361790000
H   	   -6.8324670000 	    1.6976600000 	   -0.1269470000
H   	   -7.7030460000 	   -0.6224770000 	    0.0136260000
H   	   -6.1263980000 	   -2.5319830000 	    0.1426440000
H   	   -3.6656400000 	   -2.1176940000 	    0.1275740000
H   	   -0.5643460000 	    1.8216700000 	    0.0099180000
H   	    0.2899340000 	    3.6374380000 	    0.9099240000
H   	    0.2904500000 	    3.6487100000 	   -0.8682590000
H   	    1.3563100000 	    4.7376740000 	    0.0281940000
H   	    2.2994850000 	    2.7902190000 	    2.1819600000
H   	    3.2652340000 	    3.9819310000 	    1.2927050000
H   	    3.7716100000 	    2.2828960000 	    1.3298760000
H   	    2.3031330000 	    2.8207010000 	   -2.1493000000
H   	    3.7734910000 	    2.3004480000 	   -1.3019450000
H   	    3.2679980000 	    3.9991180000 	   -1.2415260000
H   	    4.2207950000 	   -0.4057960000 	   -0.0023220000
