32
tauto -967.803222776
O   	   -2.8671580000 	    0.8536100000 	    0.6184790000
C   	   -1.9687500000 	   -0.0220600000 	    0.2715780000
N   	   -0.6651100000 	    0.2801680000 	    0.1429320000
C   	   -0.1534140000 	    1.5953020000 	   -0.1002250000
C   	   -0.4684180000 	    2.6125820000 	    0.7960170000
C   	    0.0126930000 	    3.8953330000 	    0.5581580000
C   	    0.8178280000 	    4.1513750000 	   -0.5473430000
C   	    1.1375840000 	    3.1191960000 	   -1.4248970000
C   	    0.6506160000 	    1.8350610000 	   -1.2109800000
N   	   -0.0058390000 	   -0.8432500000 	   -0.3997550000
C   	   -0.9343020000 	   -1.9355200000 	   -0.4891500000
O   	   -0.6203460000 	   -3.0512820000 	   -0.8263420000
C   	    1.3430760000 	   -1.0760740000 	    0.0109800000
C   	    2.1261750000 	   -1.9117980000 	   -0.7836630000
C   	    3.4376970000 	   -2.1762480000 	   -0.4074750000
C   	    3.9763960000 	   -1.5956440000 	    0.7370450000
C   	    3.1892680000 	   -0.7547600000 	    1.5168260000
C   	    1.8684280000 	   -0.4976560000 	    1.1648940000
C   	   -2.2044300000 	   -1.3581800000 	   -0.0722620000
N   	   -3.4232400000 	   -1.9619480000 	   -0.0557970000
O   	   -4.3557920000 	   -1.2225200000 	    0.3243170000
H   	   -3.7159500000 	    0.3054840000 	    0.6066960000
H   	   -1.0859900000 	    2.4022850000 	    1.6632920000
H   	   -0.2369560000 	    4.6944370000 	    1.2504480000
H   	    1.2005050000 	    5.1529050000 	   -0.7224080000
H   	    1.7679280000 	    3.3122020000 	   -2.2884010000
H   	    0.8925160000 	    1.0248620000 	   -1.8914950000
H   	    1.6971240000 	   -2.3599990000 	   -1.6725790000
H   	    4.0444670000 	   -2.8353840000 	   -1.0223320000
H   	    5.0062280000 	   -1.7964830000 	    1.0190910000
H   	    3.5993670000 	   -0.2981590000 	    2.4136270000
H   	    1.2537700000 	    0.1491430000 	    1.7837480000
