14
tauto -436.645641865
O   	    3.0787470000 	   -0.1572390000 	   -0.0000920000
C   	    1.7286090000 	   -0.0676740000 	    0.0000760000
C   	    0.9060180000 	   -1.2031760000 	   -0.0000760000
C   	   -0.4684010000 	   -1.0534670000 	   -0.0000870000
C   	    1.1744420000 	    1.2152100000 	    0.0000860000
C   	   -0.2024450000 	    1.3555490000 	   -0.0000370000
C   	   -1.0229480000 	    0.2274380000 	   -0.0000540000
N   	   -2.4347140000 	    0.4780570000 	   -0.0001180000
O   	   -3.1258450000 	   -0.5184960000 	    0.0001780000
H   	    3.3400410000 	   -1.0873010000 	    0.0008740000
H   	    1.3530310000 	   -2.1958590000 	   -0.0001440000
H   	   -1.1353800000 	   -1.9103550000 	   -0.0001120000
H   	    1.8396130000 	    2.0727670000 	    0.0001260000
H   	   -0.6691730000 	    2.3369580000 	   -0.0000610000
