15
tauto -620.029069755
O   	   -0.6718090000 	    2.2451710000 	    0.0000840000
C   	   -0.4084120000 	    0.9383490000 	    0.0001360000
C   	    0.9479510000 	    0.4582120000 	    0.0001110000
N   	    2.0574880000 	    1.1540420000 	   -0.0000990000
O   	    3.0365860000 	    0.2365410000 	   -0.0001110000
N   	    2.5724160000 	   -1.0365250000 	   -0.0000220000
C   	    1.2626560000 	   -0.9280010000 	    0.0000790000
C   	    0.2212530000 	   -1.9163430000 	    0.0001130000
C   	   -1.0477340000 	   -1.4441900000 	   -0.0000440000
C   	   -1.3776600000 	   -0.0345690000 	   -0.0000410000
N   	   -2.7370340000 	    0.4237340000 	   -0.0002330000
O   	   -3.5596660000 	   -0.4661010000 	    0.0000580000
H   	    0.1629140000 	    2.7389150000 	    0.0001860000
H   	    0.4558890000 	   -2.9743280000 	    0.0001520000
H   	   -1.8981070000 	   -2.1189870000 	   -0.0002200000
