31
tauto -801.402009574
O   	    0.4219620000 	    2.8627320000 	   -0.0894390000
C   	    1.1525770000 	    1.7211070000 	   -0.0476240000
C   	    2.5245990000 	    1.7088820000 	   -0.0653540000
C   	    3.2462030000 	    0.4886830000 	   -0.0208910000
C   	    4.6667410000 	    0.4488090000 	   -0.0337130000
C   	    5.3327580000 	   -0.7467150000 	    0.0134460000
C   	    4.6185070000 	   -1.9692980000 	    0.0767870000
C   	    3.2502000000 	   -1.9609270000 	    0.0911380000
C   	    2.5307240000 	   -0.7360840000 	    0.0411550000
C   	    1.1161060000 	   -0.6975990000 	    0.0535270000
C   	    0.4292200000 	    0.4896700000 	    0.0069640000
N   	   -0.9888140000 	    0.5959350000 	    0.0471600000
N   	   -1.5870390000 	   -0.4856410000 	   -0.1058750000
C   	   -3.0088410000 	   -0.3784690000 	   -0.0400870000
C   	   -3.7069530000 	   -1.5753040000 	   -0.1807780000
C   	   -5.0972140000 	   -1.5802960000 	   -0.1312360000
C   	   -5.7858990000 	   -0.3863220000 	    0.0563870000
C   	   -5.0839630000 	    0.8123350000 	    0.1941170000
C   	   -3.6975410000 	    0.8232470000 	    0.1471960000
H   	    1.0313130000 	    3.6115590000 	   -0.1241400000
H   	    3.0758320000 	    2.6475540000 	   -0.1128270000
H   	    5.2173110000 	    1.3860670000 	   -0.0817310000
H   	    6.4197710000 	   -0.7622710000 	    0.0027530000
H   	    5.1620860000 	   -2.9094180000 	    0.1141490000
H   	    2.6902050000 	   -2.8925220000 	    0.1395170000
H   	    0.5450050000 	   -1.6205910000 	    0.1046680000
H   	   -3.1406040000 	   -2.4908720000 	   -0.3276060000
H   	   -5.6408620000 	   -2.5149890000 	   -0.2400440000
H   	   -6.8723430000 	   -0.3856730000 	    0.0953900000
H   	   -5.6250550000 	    1.7439410000 	    0.3390050000
H   	   -3.1307330000 	    1.7429810000 	    0.2511760000
