16
tauto -471.124593359
N   	   -1.6991220000 	    1.7755530000 	    0.0307410000
C   	   -1.2312910000 	    0.4325860000 	   -0.0061920000
N   	   -2.1284130000 	   -0.5875860000 	    0.0130680000
O   	   -1.7091680000 	   -1.7691160000 	   -0.0235270000
C   	    0.1464120000 	    0.2013390000 	   -0.0274440000
O   	    1.0477430000 	    1.1831220000 	    0.0509250000
C   	    2.3574370000 	    0.6034850000 	   -0.1084860000
C   	    2.1558760000 	   -0.8955250000 	    0.1477740000
N   	    0.7309890000 	   -0.9967080000 	   -0.1036210000
H   	   -2.2641470000 	    1.9320160000 	    0.8590460000
H   	   -2.2904240000 	    1.9679730000 	   -0.7712770000
H   	    3.0268920000 	    1.0910590000 	    0.6007700000
H   	    2.6925600000 	    0.8036210000 	   -1.1309770000
H   	    2.4007190000 	   -1.1817340000 	    1.1782660000
H   	    2.7336740000 	   -1.5175430000 	   -0.5403760000
H   	    0.0973370000 	   -1.7975570000 	   -0.0298710000
