12
tauto -509.641154989
O   	   -1.7275690000 	   -1.7209050000 	    0.0001190000
C   	   -1.0782540000 	   -0.5664100000 	   -0.0002160000
C   	   -1.7599240000 	    0.7732760000 	    0.0004200000
O   	   -0.7113570000 	    1.7171710000 	   -0.0007100000
C   	    0.5210470000 	    1.0797340000 	   -0.0000480000
O   	    1.5410500000 	    1.6974850000 	    0.0003350000
C   	    0.2566130000 	   -0.3808150000 	    0.0001470000
N   	    1.1796460000 	   -1.4614590000 	    0.0002940000
O   	    2.3425940000 	   -1.1240850000 	   -0.0003460000
H   	   -2.6846110000 	   -1.5784610000 	   -0.0017840000
H   	   -2.3825370000 	    0.9079950000 	    0.8941240000
H   	   -2.3850050000 	    0.9086420000 	   -0.8913990000
