12
tauto -414.56750136
O   	   -0.9920720000 	    1.9395490000 	   -0.0000080000
C   	   -0.7615290000 	    0.6193070000 	    0.0000000000
N   	   -1.7341200000 	   -0.3264440000 	    0.0000020000
H   	   -2.7265960000 	   -0.1509290000 	   -0.0000230000
C   	   -1.1477240000 	   -1.5959970000 	   -0.0000010000
C   	    0.1987590000 	   -1.4398160000 	    0.0000020000
C   	    0.4644790000 	   -0.0282690000 	   -0.0000020000
N   	    1.6775060000 	    0.6635700000 	   -0.0000010000
O   	    2.6614420000 	   -0.0609040000 	    0.0000020000
H   	   -1.9394480000 	    2.1240430000 	    0.0000680000
H   	   -1.7690160000 	   -2.4798400000 	    0.0000000000
H   	    0.9524860000 	   -2.2136600000 	    0.0000050000
