12
tauto -265.451027583
C   	   -2.1420970000 	   -0.0169140000 	    0.0000300000
C   	   -0.6455270000 	    0.0231700000 	   -0.0000570000
N   	    0.0581010000 	   -1.1021510000 	   -0.0000130000
N   	    1.3393360000 	   -0.7039750000 	    0.0000480000
H   	    2.0654170000 	   -1.4014310000 	   -0.0000220000
C   	    1.4782660000 	    0.6410580000 	    0.0000310000
C   	    0.2046160000 	    1.1565850000 	   -0.0000570000
H   	   -2.4815160000 	   -1.0556890000 	   -0.0024870000
H   	   -2.5538850000 	    0.4840940000 	   -0.8827200000
H   	   -2.5536860000 	    0.4796670000 	    0.8853850000
H   	    2.4511200000 	    1.1134040000 	    0.0000300000
H   	   -0.0810510000 	    2.1994460000 	   -0.0001180000
