27
tauto -594.914578105
O   	   -2.3360990000 	   -2.1630270000 	   -0.5487900000
C   	   -2.2282130000 	   -1.0370240000 	   -0.1231830000
C   	   -3.3919570000 	   -0.2712680000 	    0.4777620000
C   	   -3.4052690000 	    1.2061880000 	    0.0714860000
C   	   -2.0585560000 	    1.8643660000 	    0.3660860000
C   	   -0.9215860000 	    1.1792160000 	   -0.4026120000
C   	   -0.8824420000 	   -0.3142770000 	   -0.1443000000
N   	    0.1369720000 	   -1.0418050000 	    0.0737160000
C   	    1.4399760000 	   -0.4999000000 	    0.0439480000
C   	    2.0049120000 	   -0.0248150000 	   -1.1423260000
C   	    3.3180770000 	    0.4347320000 	   -1.1531420000
C   	    4.0741160000 	    0.4353840000 	    0.0149970000
C   	    3.5117610000 	   -0.0439410000 	    1.1959000000
C   	    2.2077250000 	   -0.5234870000 	    1.2108600000
H   	   -3.2812210000 	   -0.3407630000 	    1.5707720000
H   	   -4.3156240000 	   -0.7918830000 	    0.2095240000
H   	   -4.2114430000 	    1.7258260000 	    0.6010660000
H   	   -3.6269280000 	    1.2921550000 	   -1.0011540000
H   	   -1.8539800000 	    1.8138680000 	    1.4442680000
H   	   -2.0848770000 	    2.9268470000 	    0.0997920000
H   	    0.0467600000 	    1.6274850000 	   -0.1616040000
H   	   -1.0826920000 	    1.3326660000 	   -1.4802040000
H   	    1.4149760000 	   -0.0379990000 	   -2.0558330000
H   	    3.7505760000 	    0.7972340000 	   -2.0824090000
H   	    5.0981340000 	    0.7987840000 	    0.0041510000
H   	    4.0968360000 	   -0.0557700000 	    2.1121860000
H   	    1.7682030000 	   -0.9226440000 	    2.1209030000
