17
tauto -363.922981177
N   	    1.9023050000 	    1.2269420000 	    0.4005250000
C   	    0.8126980000 	    0.7110440000 	    0.0021800000
C   	   -0.4403690000 	    1.4446380000 	   -0.4305860000
C   	   -1.7080250000 	    0.8284410000 	    0.1741280000
C   	   -1.7924500000 	   -0.6649150000 	   -0.1432260000
C   	   -0.5763050000 	   -1.4189170000 	    0.4081840000
C   	    0.7422770000 	   -0.8128070000 	   -0.0379000000
O   	    1.6887170000 	   -1.4794840000 	   -0.3836490000
H   	    1.8244850000 	    2.2491060000 	    0.3987700000
H   	   -0.5068300000 	    1.3814260000 	   -1.5270230000
H   	   -0.3503940000 	    2.5075310000 	   -0.1757860000
H   	   -2.5899950000 	    1.3511740000 	   -0.2122060000
H   	   -1.7033240000 	    0.9731610000 	    1.2630530000
H   	   -1.8492820000 	   -0.8041340000 	   -1.2315120000
H   	   -2.7098330000 	   -1.0929880000 	    0.2755120000
H   	   -0.5764090000 	   -2.4767620000 	    0.1305160000
H   	   -0.5912470000 	   -1.3661400000 	    1.5075120000
