11
tauto -434.423730763
O   	    1.1079890000 	   -1.8695620000 	    0.0000000000
C   	    0.7645720000 	   -0.5915060000 	    0.0000000000
O   	    1.7411780000 	    0.3176640000 	    0.0000000000
C   	    1.1276300000 	    1.5673680000 	    0.0000000000
C   	   -0.2080510000 	    1.4307210000 	    0.0000000000
C   	   -0.4686190000 	    0.0107050000 	    0.0000000000
N   	   -1.6737780000 	   -0.6989590000 	    0.0000000000
O   	   -2.6622380000 	    0.0158700000 	    0.0000000000
H   	    2.0744990000 	   -1.9352460000 	   -0.0000010000
H   	    1.8097900000 	    2.4028290000 	    0.0000000000
H   	   -0.9564590000 	    2.2096290000 	    0.0000000000
