14
tauto -527.897158506
O   	   -0.6917670000 	    2.2342030000 	   -0.0000230000
C   	   -0.1515600000 	    1.0172220000 	   -0.0000260000
N   	    1.1960860000 	    0.8887630000 	   -0.0000420000
C   	    1.9194040000 	   -0.3407010000 	   -0.0000420000
C   	    1.0682210000 	   -1.5153810000 	    0.0000140000
C   	   -0.2788550000 	   -1.3925010000 	    0.0000230000
O   	    3.1328750000 	   -0.2926170000 	    0.0000050000
C   	   -0.9334220000 	   -0.1211590000 	    0.0000240000
N   	   -2.3334030000 	    0.0531060000 	    0.0000450000
O   	   -2.9671700000 	   -0.9874090000 	    0.0000230000
H   	   -0.0145840000 	    2.9240780000 	   -0.0000520000
H   	    1.8011920000 	    1.7019270000 	   -0.0000470000
H   	    1.5707590000 	   -2.4755310000 	    0.0000410000
H   	   -0.9303910000 	   -2.2618570000 	    0.0000430000
