16
tauto -488.192143416
N   	    3.1416660000 	   -0.1943270000 	   -0.0456540000
C   	    1.7825840000 	   -0.2098980000 	   -0.0057920000
C   	    1.0852960000 	   -1.4503860000 	    0.0022080000
C   	   -0.2817160000 	   -1.4044210000 	    0.0056370000
N   	    1.1880780000 	    0.9829920000 	   -0.0016950000
C   	   -0.1518830000 	    1.0147120000 	    0.0035120000
N   	   -0.7346360000 	    2.2305660000 	    0.0232770000
C   	   -0.9409510000 	   -0.1643410000 	    0.0035750000
N   	   -2.3267770000 	    0.0028300000 	   -0.0071890000
O   	   -2.9925020000 	   -1.0234990000 	   -0.0014630000
H   	    3.6617560000 	   -1.0289270000 	    0.1684640000
H   	    3.5929700000 	    0.6939180000 	    0.1078950000
H   	    1.6331020000 	   -2.3876870000 	   -0.0053210000
H   	   -0.8943760000 	   -2.3015600000 	    0.0068530000
H   	   -0.1534990000 	    3.0473870000 	   -0.0638480000
H   	   -1.7382380000 	    2.2964500000 	   -0.0383470000
