20
tauto -681.508508344
O   	   -3.1503210000 	    0.5718760000 	    0.0000520000
C   	   -1.8176140000 	    0.5495230000 	    0.0000540000
N   	   -1.1685850000 	    1.7458430000 	    0.0001610000
C   	    0.2277170000 	    1.9151620000 	   -0.0000260000
C   	    0.9930070000 	    0.6636600000 	   -0.0000230000
C   	    0.3488550000 	   -0.5925500000 	    0.0000590000
C   	    1.1660580000 	   -1.7389870000 	    0.0001090000
C   	    2.5458590000 	   -1.6172730000 	    0.0001090000
C   	    3.1698890000 	   -0.3664300000 	   -0.0000150000
C   	    2.3881680000 	    0.7713230000 	   -0.0000730000
O   	    0.6784760000 	    3.0430720000 	   -0.0001360000
C   	   -1.1154120000 	   -0.6387000000 	    0.0000170000
N   	   -1.9650620000 	   -1.7564590000 	   -0.0000850000
O   	   -1.4369160000 	   -2.8572550000 	   -0.0001660000
H   	   -3.4862040000 	    1.4779670000 	   -0.0000790000
H   	   -1.6792780000 	    2.6207030000 	    0.0001720000
H   	    0.7033040000 	   -2.7150060000 	    0.0001510000
H   	    3.1509500000 	   -2.5206550000 	    0.0001770000
H   	    4.2534510000 	   -0.2905270000 	   -0.0000720000
H   	    2.8242340000 	    1.7659170000 	   -0.0001430000
