18
tauto -439.089336385
O   	   -2.7555670000 	   -0.6237750000 	   -0.0232700000
N   	   -1.8834250000 	    0.4380330000 	    0.0416550000
C   	   -0.6625580000 	    0.0530040000 	   -0.0016920000
C   	   -0.2412300000 	   -1.3916350000 	   -0.1129310000
C   	    1.2152970000 	   -1.6370430000 	    0.2864330000
C   	    2.1434850000 	   -0.6016110000 	   -0.3435200000
C   	    1.8066720000 	    0.7943080000 	    0.1815930000
C   	    0.3458210000 	    1.1807440000 	    0.0239150000
O   	    0.0065680000 	    2.3402910000 	   -0.0574770000
H   	   -3.6188440000 	   -0.1943770000 	    0.0441990000
H   	   -0.3971660000 	   -1.7026800000 	   -1.1561600000
H   	   -0.9251110000 	   -2.0040960000 	    0.4834030000
H   	    1.5042990000 	   -2.6515410000 	   -0.0094680000
H   	    1.3135030000 	   -1.5883560000 	    1.3796930000
H   	    2.0363580000 	   -0.6270710000 	   -1.4369310000
H   	    3.1914350000 	   -0.8345530000 	   -0.1247110000
H   	    2.4044660000 	    1.5809560000 	   -0.2883060000
H   	    2.0221010000 	    0.8367510000 	    1.2598910000
