26
tauto -631.848698339
O   	    0.9976730000 	   -2.5508240000 	    0.1574210000
C   	    1.4907770000 	   -1.3043050000 	    0.0812910000
C   	    0.6768920000 	   -0.1555930000 	   -0.0334360000
C   	   -0.8007900000 	   -0.2372230000 	   -0.0304480000
N   	   -1.3721210000 	   -1.4410440000 	   -0.1928690000
C   	   -2.7030080000 	   -1.5395180000 	   -0.2006000000
C   	   -3.5401690000 	   -0.4467480000 	   -0.0511780000
C   	   -2.9532490000 	    0.8019960000 	    0.1395770000
C   	   -1.5727560000 	    0.9253940000 	    0.1608560000
C   	   -0.8749000000 	    2.2354400000 	    0.4225130000
C   	    0.4226820000 	    2.3245350000 	   -0.3751720000
C   	    1.2925280000 	    1.1075240000 	   -0.1529990000
C   	    2.6737970000 	    1.2227280000 	   -0.1180790000
C   	    3.4649380000 	    0.0819980000 	    0.0312510000
C   	    2.8839040000 	   -1.1681490000 	    0.1271840000
H   	    0.0242170000 	   -2.4907690000 	    0.0076530000
H   	   -3.1055950000 	   -2.5413850000 	   -0.3336870000
H   	   -4.6184410000 	   -0.5692190000 	   -0.0737320000
H   	   -3.5729900000 	    1.6860810000 	    0.2786630000
H   	   -0.6455820000 	    2.3071830000 	    1.4953980000
H   	   -1.5396240000 	    3.0726100000 	    0.1813530000
H   	    0.9737450000 	    3.2326870000 	   -0.1089280000
H   	    0.1830730000 	    2.4009100000 	   -1.4455950000
H   	    3.1351680000 	    2.2030460000 	   -0.2102410000
H   	    4.5477570000 	    0.1755300000 	    0.0657100000
H   	    3.4778550000 	   -2.0712420000 	    0.2295500000
