24
tauto -630.617822597
O   	   -1.0264380000 	   -2.4971890000 	    0.0003460000
C   	   -1.5277620000 	   -1.2394760000 	    0.0001030000
C   	   -2.9007150000 	   -1.0448820000 	   -0.0000080000
C   	   -3.4529500000 	    0.2390340000 	   -0.0001520000
C   	   -2.6272560000 	    1.3374570000 	   -0.0001620000
C   	   -1.2282070000 	    1.1696000000 	   -0.0000720000
C   	   -0.3877740000 	    2.3410940000 	    0.0000090000
C   	    0.9569560000 	    2.2444680000 	    0.0001710000
C   	    1.5932390000 	    0.9569490000 	    0.0001350000
C   	    2.9941790000 	    0.8351020000 	    0.0001620000
C   	    3.5690060000 	   -0.4129680000 	   -0.0000290000
C   	    2.7119750000 	   -1.5245850000 	   -0.0002870000
N   	    1.3966950000 	   -1.4462860000 	   -0.0002840000
C   	    0.8161640000 	   -0.2270290000 	   -0.0000310000
C   	   -0.6425560000 	   -0.1216950000 	   -0.0000050000
H   	   -1.7743080000 	   -3.1097320000 	    0.0006300000
H   	   -3.5552910000 	   -1.9155910000 	    0.0000360000
H   	   -4.5332080000 	    0.3585500000 	   -0.0002400000
H   	   -3.0375490000 	    2.3441050000 	   -0.0002300000
H   	   -0.8747340000 	    3.3136050000 	   -0.0000300000
H   	    1.5836370000 	    3.1340300000 	    0.0002820000
H   	    3.6045810000 	    1.7364410000 	    0.0003130000
H   	    4.6466840000 	   -0.5466080000 	   -0.0000060000
H   	    3.1290250000 	   -2.5316870000 	   -0.0005310000
