29
tauto -650.238762069
O   	   -1.9877100000 	    2.3196440000 	   -0.0318130000
C   	   -2.3853250000 	    1.1732550000 	   -0.0300100000
C   	   -3.8780240000 	    0.8738350000 	   -0.0153730000
C   	   -4.2351780000 	   -0.5339320000 	    0.4577190000
C   	   -3.4355410000 	   -1.5639440000 	   -0.3345930000
C   	   -1.9368700000 	   -1.4255910000 	   -0.0539180000
C   	   -1.4433720000 	    0.0045960000 	   -0.0554990000
N   	   -0.1945500000 	    0.3251470000 	   -0.0363430000
N   	    0.7290070000 	   -0.6238210000 	   -0.0114700000
C   	    2.0924130000 	   -0.2941490000 	    0.0035630000
C   	    2.5133450000 	    1.0364150000 	   -0.0378900000
C   	    3.8733130000 	    1.3178990000 	   -0.0237830000
C   	    4.8184430000 	    0.2957840000 	    0.0303080000
C   	    4.3879870000 	   -1.0265240000 	    0.0710820000
C   	    3.0306690000 	   -1.3256890000 	    0.0580100000
H   	   -4.2327790000 	    1.0129140000 	   -1.0470930000
H   	   -4.3583240000 	    1.6541080000 	    0.5830640000
H   	   -5.3108040000 	   -0.7051320000 	    0.3385200000
H   	   -4.0152860000 	   -0.6407910000 	    1.5291190000
H   	   -3.6238590000 	   -1.4155170000 	   -1.4064360000
H   	   -3.7574600000 	   -2.5835160000 	   -0.0956080000
H   	   -1.3731340000 	   -2.0092190000 	   -0.7978160000
H   	   -1.7103100000 	   -1.8762810000 	    0.9262830000
H   	    0.4745830000 	   -1.6035740000 	    0.0332510000
H   	    1.7692670000 	    1.8245110000 	   -0.0793720000
H   	    4.1974530000 	    2.3551020000 	   -0.0563860000
H   	    5.8797050000 	    0.5277120000 	    0.0403640000
H   	    5.1119850000 	   -1.8362840000 	    0.1134280000
H   	    2.6982780000 	   -2.3621960000 	    0.0901750000
