30
tauto -634.259340262
O   	    0.5802190000 	   -1.6655540000 	    1.4107450000
C   	    1.1706430000 	   -1.2404950000 	    0.4431970000
C   	    0.4940610000 	   -0.4021370000 	   -0.6480990000
C   	   -0.9904720000 	   -0.2766790000 	   -0.3997710000
N   	   -1.7216110000 	   -1.3424550000 	   -0.7427920000
C   	   -3.0310840000 	   -1.3041250000 	   -0.5166150000
C   	   -3.6771350000 	   -0.2116830000 	    0.0543600000
C   	   -2.9116080000 	    0.8936430000 	    0.3918640000
C   	   -1.5359120000 	    0.8806980000 	    0.1650540000
C   	   -0.6879910000 	    2.0949800000 	    0.4826290000
C   	    0.8129480000 	    1.8006130000 	    0.4860830000
C   	    1.1995450000 	    0.9694210000 	   -0.7421960000
C   	    2.7135720000 	    0.8043040000 	   -0.9266270000
C   	    3.3567290000 	   -0.0631320000 	    0.1576790000
C   	    2.6629780000 	   -1.4312580000 	    0.2496690000
H   	    0.6323120000 	   -0.9468450000 	   -1.5923690000
H   	   -3.5933310000 	   -2.1904510000 	   -0.8073820000
H   	   -4.7497770000 	   -0.2304410000 	    0.2237970000
H   	   -3.3761970000 	    1.7734860000 	    0.8347760000
H   	   -0.9959210000 	    2.5148090000 	    1.4478100000
H   	   -0.8985520000 	    2.8701390000 	   -0.2683700000
H   	    1.0748890000 	    1.2590980000 	    1.4050200000
H   	    1.3751200000 	    2.7426740000 	    0.5006260000
H   	    0.8042920000 	    1.4846390000 	   -1.6298620000
H   	    3.1886050000 	    1.7932020000 	   -0.9501830000
H   	    2.8995500000 	    0.3433080000 	   -1.9070870000
H   	    3.2926640000 	    0.4398390000 	    1.1312010000
H   	    4.4236410000 	   -0.2010860000 	   -0.0506560000
H   	    3.0467140000 	   -2.0317200000 	    1.0788020000
H   	    2.8278790000 	   -1.9839400000 	   -0.6859010000
