19
tauto -457.139886499
C   	    1.8905610000 	    1.1598570000 	    0.0680460000
C   	    3.1541890000 	    0.6233930000 	    0.0382790000
N   	    2.9924660000 	   -0.7171520000 	   -0.0415350000
H   	    3.7072740000 	   -1.4251770000 	   -0.0868900000
N   	    1.7101830000 	   -1.0928960000 	   -0.0670830000
C   	    1.0200500000 	    0.0424370000 	   -0.0002150000
C   	   -0.4570210000 	    0.0236790000 	   -0.0003980000
C   	   -1.1903550000 	    1.2113910000 	   -0.0421740000
C   	   -2.5810880000 	    1.1864460000 	   -0.0403970000
C   	   -3.2583770000 	   -0.0278720000 	    0.0016630000
C   	   -2.5341470000 	   -1.2170870000 	    0.0414450000
C   	   -1.1454390000 	   -1.1927150000 	    0.0411350000
H   	    1.6340160000 	    2.2072400000 	    0.1382950000
H   	    4.1341670000 	    1.0790700000 	    0.0695500000
H   	   -0.6727740000 	    2.1669960000 	   -0.0817390000
H   	   -3.1361290000 	    2.1207170000 	   -0.0739290000
H   	   -4.3453000000 	   -0.0483750000 	    0.0028750000
H   	   -3.0550850000 	   -2.1708510000 	    0.0746570000
H   	   -0.5749400000 	   -2.1164640000 	    0.0731980000
