34
tauto -636.629546951
O   	   -1.0781090000 	   -2.5770970000 	   -0.0830110000
C   	   -1.4900400000 	   -1.2979160000 	   -0.2336820000
C   	   -0.6558740000 	   -0.2352780000 	   -0.3164850000
C   	    0.8200860000 	   -0.3279840000 	   -0.1692500000
N   	    1.3529210000 	   -1.4704250000 	    0.0410900000
C   	    2.7841240000 	   -1.6190690000 	    0.2355490000
C   	    3.6564640000 	   -0.4038300000 	   -0.0773030000
C   	    2.9620050000 	    0.8474550000 	    0.4411960000
C   	    1.6083100000 	    0.9839270000 	   -0.2485680000
C   	    0.7833690000 	    2.1562750000 	    0.2748570000
C   	   -0.4557830000 	    2.3237840000 	   -0.5924140000
C   	   -1.3791980000 	    1.0981270000 	   -0.5238230000
C   	   -2.4559360000 	    1.2913330000 	    0.5649560000
C   	   -3.3595590000 	    0.0512940000 	    0.7248320000
C   	   -2.9784830000 	   -1.0542600000 	   -0.2743590000
H   	   -1.8605160000 	   -3.1416770000 	   -0.0489610000
H   	    3.1037980000 	   -2.4849360000 	   -0.3579720000
H   	    2.9263710000 	   -1.9130270000 	    1.2860500000
H   	    3.8003490000 	   -0.3120960000 	   -1.1625680000
H   	    4.6502440000 	   -0.5312610000 	    0.3685190000
H   	    3.5624360000 	    1.7482300000 	    0.2628320000
H   	    2.8141660000 	    0.7688530000 	    1.5283500000
H   	    1.7975730000 	    1.1773220000 	   -1.3181510000
H   	    1.3910650000 	    3.0702700000 	    0.2593570000
H   	    0.5046230000 	    1.9776310000 	    1.3238050000
H   	   -0.1275750000 	    2.4847540000 	   -1.6279650000
H   	   -1.0221630000 	    3.2187650000 	   -0.3050750000
H   	   -1.9178050000 	    1.0499610000 	   -1.4831830000
H   	   -3.0571670000 	    2.1723960000 	    0.3078640000
H   	   -1.9563150000 	    1.5187860000 	    1.5148170000
H   	   -4.4142130000 	    0.3145260000 	    0.5879380000
H   	   -3.2669350000 	   -0.3568640000 	    1.7369810000
H   	   -3.2821110000 	   -0.7592880000 	   -1.2884050000
H   	   -3.5283030000 	   -1.9757460000 	   -0.0408180000
