30
tauto -634.201706593
O   	   -1.0021510000 	   -2.4840310000 	   -0.0841630000
C   	   -1.4773550000 	   -1.2276110000 	   -0.0180890000
C   	   -0.6498380000 	   -0.1464440000 	    0.0616090000
C   	    0.8363400000 	   -0.2561940000 	    0.0063770000
N   	    1.3963710000 	   -1.4077010000 	    0.1231050000
C   	    2.8433040000 	   -1.5206200000 	    0.0547480000
C   	    3.6229490000 	   -0.2523640000 	    0.3919750000
C   	    3.0624050000 	    0.9002050000 	   -0.4350900000
C   	    1.5802790000 	    1.0120590000 	   -0.1950240000
C   	    0.9396090000 	    2.1936730000 	   -0.1372680000
C   	   -0.4866090000 	    2.2921820000 	    0.0835460000
C   	   -1.2532530000 	    1.1884720000 	    0.1809520000
C   	   -2.7343100000 	    1.2913290000 	    0.4392850000
C   	   -3.4954840000 	    0.2591820000 	   -0.3841180000
C   	   -2.9847710000 	   -1.1319930000 	   -0.0308570000
H   	   -1.7476460000 	   -3.0862490000 	   -0.2133190000
H   	    3.1046070000 	   -1.8560830000 	   -0.9610260000
H   	    3.1375240000 	   -2.3380850000 	    0.7243770000
H   	    4.6919860000 	   -0.4001780000 	    0.1988730000
H   	    3.5097930000 	   -0.0266470000 	    1.4603180000
H   	    3.2485870000 	    0.6950800000 	   -1.5000840000
H   	    3.5569030000 	    1.8507400000 	   -0.2030560000
H   	    1.5089850000 	    3.1148340000 	   -0.2586920000
H   	   -0.9387450000 	    3.2775230000 	    0.1713830000
H   	   -3.0810680000 	    2.3065420000 	    0.2189580000
H   	   -2.9323180000 	    1.1095740000 	    1.5064410000
H   	   -3.3309960000 	    0.4494420000 	   -1.4516570000
H   	   -4.5736620000 	    0.3227630000 	   -0.2012030000
H   	   -3.3721500000 	   -1.8711660000 	   -0.7474570000
H   	   -3.3587920000 	   -1.4331940000 	    0.9594390000
