18
tauto -456.124025285
C   	   -3.5308050000 	   -0.3564520000 	   -0.0001010000
N   	   -2.1515250000 	    0.1073700000 	    0.0000880000
N   	   -1.3184670000 	   -0.8200950000 	   -0.0000020000
C   	    0.0421800000 	   -0.4341310000 	   -0.0000080000
C   	    0.9585650000 	   -1.4935710000 	    0.0000600000
C   	    2.3208510000 	   -1.2620910000 	    0.0000450000
C   	    2.7811620000 	    0.0594860000 	   -0.0000680000
C   	    1.8959950000 	    1.1233250000 	   -0.0000990000
C   	    0.5139790000 	    0.8977550000 	   -0.0000490000
O   	   -0.2998970000 	    1.9621660000 	    0.0001410000
H   	   -4.0319480000 	    0.0505130000 	   -0.8843780000
H   	   -4.0319960000 	    0.0496840000 	    0.8845010000
H   	   -3.5812750000 	   -1.4497210000 	   -0.0005630000
H   	    0.5511210000 	   -2.5010610000 	    0.0001320000
H   	    3.0224080000 	   -2.0906290000 	    0.0001050000
H   	    3.8500050000 	    0.2589740000 	   -0.0001280000
H   	    2.2414850000 	    2.1527960000 	   -0.0001460000
H   	   -1.2222460000 	    1.6152630000 	    0.0000710000
