28
tauto -632.848422721
O   	    0.9326360000 	   -2.4361100000 	    0.1859170000
C   	    1.5723650000 	   -1.2571300000 	    0.1184820000
C   	    0.7650680000 	   -0.1859600000 	   -0.6712270000
C   	    2.7815040000 	   -1.0475520000 	    0.7346910000
C   	    3.1755330000 	    0.3418640000 	    0.6512330000
C   	    2.8743500000 	    0.8243650000 	   -0.5999830000
C   	    1.4555310000 	    1.1955530000 	   -0.5463220000
C   	    0.7831920000 	    2.2849670000 	   -0.1594090000
C   	   -0.6277140000 	    2.1963710000 	    0.1967490000
C   	   -1.3499110000 	    1.0631070000 	    0.1342320000
C   	   -0.7449230000 	   -0.1823380000 	   -0.3935370000
N   	   -1.3983040000 	   -1.2260050000 	   -0.7318200000
C   	   -2.8304240000 	   -1.2743450000 	   -0.4736360000
C   	   -3.2808210000 	   -0.4112100000 	    0.7009620000
C   	   -2.8245900000 	    1.0248950000 	    0.4676450000
H   	    1.4988310000 	   -3.0655100000 	    0.6549960000
H   	    0.8603180000 	   -0.4857680000 	   -1.7247750000
H   	    3.1823830000 	   -1.8033750000 	    1.4136040000
H   	    3.0840540000 	    0.9721410000 	    1.5374120000
H   	    3.0984340000 	    0.1282350000 	   -1.4113450000
H   	    1.3006690000 	    3.2325160000 	   -0.0405090000
H   	   -1.1173690000 	    3.1089610000 	    0.5366410000
H   	   -3.0953200000 	   -2.3247960000 	   -0.3085490000
H   	   -3.3529110000 	   -0.9660340000 	   -1.3917230000
H   	   -2.8295860000 	   -0.8017040000 	    1.6224360000
H   	   -4.3687010000 	   -0.4637150000 	    0.8212880000
H   	   -3.0314030000 	    1.6586240000 	    1.3381110000
H   	   -3.3973190000 	    1.4458110000 	   -0.3714690000
