18
tauto -439.069024158
O   	   -0.6714510000 	    1.9815160000 	   -0.3723540000
C   	   -0.0146910000 	    1.0519310000 	    0.0369490000
C   	    1.4529860000 	    1.1621040000 	    0.3969480000
C   	    2.2799500000 	    0.0189230000 	   -0.2083460000
C   	    1.6814150000 	   -1.3433310000 	    0.1444040000
C   	    0.2314440000 	   -1.4466340000 	   -0.3313480000
C   	   -0.6352090000 	   -0.3278640000 	    0.2615270000
N   	   -1.9630020000 	   -0.3613070000 	   -0.4131140000
O   	   -2.8778970000 	   -0.4506710000 	    0.3599900000
H   	    1.5265550000 	    1.1192840000 	    1.4937950000
H   	    1.8049060000 	    2.1470080000 	    0.0778580000
H   	    3.3146670000 	    0.0890300000 	    0.1443300000
H   	    2.3102400000 	    0.1318560000 	   -1.3002830000
H   	    1.7257960000 	   -1.4949910000 	    1.2321000000
H   	    2.2725990000 	   -2.1461410000 	   -0.3097700000
H   	   -0.2007000000 	   -2.4174810000 	   -0.0644450000
H   	    0.1913480000 	   -1.3681270000 	   -1.4258490000
H   	   -0.7849790000 	   -0.4688140000 	    1.3421660000
