22
tauto -496.45111566
C   	    4.1548880000 	    0.7432900000 	    0.0576820000
C   	    2.7502450000 	    0.2342280000 	    0.0204290000
C   	    1.5362810000 	    0.8795290000 	    0.0631240000
C   	    0.5611020000 	   -0.1474360000 	   -0.0125380000
C   	   -0.9103610000 	   -0.0213510000 	   -0.0036250000
C   	   -1.7160940000 	   -1.1623270000 	    0.0642390000
C   	   -3.1003020000 	   -1.0481670000 	    0.0720280000
C   	   -3.7032700000 	    0.2062190000 	    0.0134520000
C   	   -2.9088920000 	    1.3462620000 	   -0.0546970000
C   	   -1.5227010000 	    1.2322530000 	   -0.0642900000
N   	    1.1378790000 	   -1.3415490000 	   -0.0958840000
N   	    2.4525130000 	   -1.0854690000 	   -0.0736890000
H   	    3.0980430000 	   -1.8573010000 	   -0.1304880000
H   	    4.1532330000 	    1.8262710000 	    0.2013810000
H   	    4.6862550000 	    0.5295290000 	   -0.8765300000
H   	    4.7237170000 	    0.2964300000 	    0.8806200000
H   	    1.3817020000 	    1.9463980000 	    0.1493410000
H   	   -1.2395130000 	   -2.1372080000 	    0.1115370000
H   	   -3.7133290000 	   -1.9446370000 	    0.1256050000
H   	   -4.7867870000 	    0.2943840000 	    0.0206760000
H   	   -3.3691340000 	    2.3300310000 	   -0.1040690000
H   	   -0.9123070000 	    2.1302190000 	   -0.1258830000
