26
tauto -631.833630301
O   	    1.0344090000 	   -2.3853430000 	   -0.6889230000
C   	    1.4212500000 	   -1.3352330000 	   -0.2249880000
C   	    2.8907230000 	   -1.1835610000 	    0.1633740000
C   	    3.2612640000 	    0.1823800000 	    0.7287990000
C   	    2.6308590000 	    1.2742960000 	   -0.1331480000
C   	    0.5393880000 	   -0.1248700000 	   -0.0935420000
C   	    1.1262390000 	    1.1276750000 	   -0.1406940000
C   	    0.3170840000 	    2.2936300000 	   -0.1804690000
C   	   -1.0442100000 	    2.2030560000 	   -0.1544330000
C   	   -1.6777080000 	    0.9377970000 	   -0.0470500000
C   	   -3.0861180000 	    0.8063410000 	    0.0351150000
C   	   -3.6344550000 	   -0.4367810000 	    0.1771030000
C   	   -2.7568390000 	   -1.5451180000 	    0.2588270000
N   	   -1.4521810000 	   -1.4681550000 	    0.1781930000
C   	   -0.8901520000 	   -0.2409680000 	    0.0007340000
H   	    3.4651240000 	   -1.3860040000 	   -0.7504640000
H   	    3.1258230000 	   -1.9979830000 	    0.8572640000
H   	    4.3500360000 	    0.2975340000 	    0.7676640000
H   	    2.8889740000 	    0.2816820000 	    1.7561570000
H   	    2.8964100000 	    2.2709510000 	    0.2370210000
H   	    3.0226890000 	    1.2065480000 	   -1.1586340000
H   	    0.8015180000 	    3.2660090000 	   -0.2348370000
H   	   -1.6611700000 	    3.0988040000 	   -0.1930250000
H   	   -3.7069980000 	    1.6992080000 	   -0.0085530000
H   	   -4.7079330000 	   -0.5851980000 	    0.2455530000
H   	   -3.1684240000 	   -2.5435750000 	    0.4081160000
