23
tauto -679.861414438
O   	    1.1270970000 	   -2.5126370000 	   -0.0014320000
C   	    1.4850880000 	   -1.3508840000 	   -0.0005260000
N   	    2.8404190000 	   -1.0628260000 	    0.0001180000
C   	    3.3904250000 	    0.2233090000 	    0.0006410000
C   	    2.5901380000 	    1.2866360000 	    0.0000700000
N   	    1.2040110000 	    1.1450340000 	   -0.0012170000
C   	    0.5840940000 	   -0.1669220000 	   -0.0002000000
C   	   -0.7755880000 	   -0.2769970000 	    0.0005850000
N   	   -1.4222110000 	   -1.4991600000 	    0.0021650000
C   	   -2.7154410000 	   -1.5364930000 	    0.0011420000
C   	   -3.5746840000 	   -0.3940000000 	   -0.0011850000
C   	   -2.9385430000 	    0.8057510000 	   -0.0011990000
N   	   -1.5911480000 	    0.8924290000 	    0.0000300000
C   	   -0.9454480000 	    2.1689260000 	    0.0007590000
C   	    0.3818120000 	    2.2491890000 	    0.0001130000
H   	    3.4308950000 	   -1.8795010000 	   -0.0004810000
H   	    4.4692860000 	    0.3001660000 	    0.0015120000
H   	    2.9649830000 	    2.3027420000 	    0.0004660000
H   	   -3.1576670000 	   -2.5341760000 	    0.0025500000
H   	   -4.6534180000 	   -0.4740610000 	   -0.0021000000
H   	   -3.4609310000 	    1.7587150000 	   -0.0020270000
H   	   -1.5952620000 	    3.0334630000 	    0.0019330000
H   	    0.8767330000 	    3.2143150000 	    0.0007290000
