22
tauto -479.381571006
C   	   -2.0710510000 	    1.2519090000 	    0.6721530000
C   	   -1.2934060000 	    0.0235570000 	    0.2638700000
C   	    0.1835210000 	   -0.0271740000 	    0.6297330000
C   	    0.7748050000 	   -1.4045170000 	    0.5520890000
C   	    2.0362890000 	   -1.6142180000 	    0.1632580000
C   	    2.8697870000 	   -0.5033260000 	   -0.2907200000
C   	    2.3940160000 	    0.7481370000 	   -0.4086750000
C   	    0.9864170000 	    1.0580260000 	   -0.1062280000
O   	    0.4926670000 	    2.1357630000 	   -0.3868330000
N   	   -1.7730840000 	   -0.9745840000 	   -0.3595450000
C   	   -3.1773530000 	   -0.9405610000 	   -0.7297050000
H   	   -1.4967000000 	    1.8947980000 	    1.3402540000
H   	   -3.0097470000 	    0.9655620000 	    1.1613390000
H   	   -2.3216740000 	    1.8488030000 	   -0.2118640000
H   	    0.2678910000 	    0.2854480000 	    1.6881610000
H   	    0.1325920000 	   -2.2251030000 	    0.8566750000
H   	    2.4584690000 	   -2.6151370000 	    0.1595030000
H   	    3.9008640000 	   -0.7151610000 	   -0.5672070000
H   	    2.9914760000 	    1.5664750000 	   -0.7995780000
H   	   -3.4124800000 	   -1.8251700000 	   -1.3269520000
H   	   -3.4302180000 	   -0.0489540000 	   -1.3194690000
H   	   -3.8283720000 	   -0.9465800000 	    0.1559670000
