19
tauto -602.493135668
O   	    1.7232940000 	   -2.3317440000 	    0.0001440000
C   	    1.7583700000 	   -1.1010490000 	    0.0000030000
N   	    2.9034100000 	   -0.2644230000 	    0.0000920000
C   	    2.4828950000 	    0.9703410000 	    0.0000300000
N   	    1.1308370000 	    1.1143400000 	   -0.0000760000
C   	    0.6324420000 	   -0.2139970000 	   -0.0000950000
C   	   -0.7171980000 	   -0.3969160000 	   -0.0000950000
N   	   -1.4631670000 	   -1.5243770000 	   -0.0000690000
C   	   -2.8155100000 	   -1.1780170000 	    0.0000780000
C   	   -2.8944550000 	    0.1677660000 	    0.0000660000
N   	   -1.5879650000 	    0.6618410000 	   -0.0000810000
C   	   -1.0769460000 	    1.9782670000 	   -0.0000430000
C   	    0.2489000000 	    2.1860100000 	   -0.0000440000
H   	    3.1294470000 	    1.8430950000 	    0.0000750000
H   	   -1.0327140000 	   -2.4390380000 	    0.0001660000
H   	   -3.5945310000 	   -1.9238040000 	    0.0000980000
H   	   -3.7510600000 	    0.8241430000 	    0.0000830000
H   	   -1.8027450000 	    2.7799470000 	   -0.0000260000
H   	    0.6724590000 	    3.1835110000 	   -0.0000140000
