25
tauto -681.079848579
O   	   -1.1697620000 	    2.5115540000 	    0.2903410000
C   	   -1.6087500000 	    1.2647130000 	    0.0657340000
N   	   -2.8650280000 	    1.0874070000 	   -0.1364420000
C   	   -3.3150990000 	   -0.2199310000 	   -0.3374540000
C   	   -2.5222910000 	   -1.2782680000 	   -0.1207430000
N   	   -1.2017510000 	   -1.0882370000 	    0.2595950000
C   	   -0.6085420000 	    0.1877590000 	    0.0788200000
C   	    0.7422280000 	    0.3182060000 	   -0.0579410000
N   	    1.3741800000 	    1.5523170000 	   -0.1285420000
C   	    2.6598020000 	    1.6025140000 	   -0.0788680000
C   	    3.5202250000 	    0.4487400000 	    0.0364840000
C   	    2.9077210000 	   -0.7522730000 	   -0.0313070000
N   	    1.5534150000 	   -0.8528980000 	   -0.1432040000
C   	    0.8974930000 	   -2.1260400000 	   -0.3380750000
C   	   -0.3306890000 	   -2.1821620000 	    0.5796270000
H   	   -1.9699640000 	    3.0599900000 	    0.2320590000
H   	   -4.3498560000 	   -0.3355080000 	   -0.6386190000
H   	   -2.8580090000 	   -2.3078860000 	   -0.1959170000
H   	    3.1077850000 	    2.5951730000 	   -0.1429530000
H   	    4.5951740000 	    0.5384140000 	    0.1255890000
H   	    3.4433380000 	   -1.6986410000 	   -0.0214560000
H   	    1.6059750000 	   -2.9280610000 	   -0.1070170000
H   	    0.5698810000 	   -2.2362380000 	   -1.3801200000
H   	    0.0049760000 	   -2.1250260000 	    1.6247470000
H   	   -0.8694910000 	   -3.1243190000 	    0.4434360000
