24
tauto -534.754912843
O   	   -1.5293640000 	    2.0537440000 	   -0.0512660000
C   	   -1.8238360000 	    0.7646910000 	   -0.0130040000
C   	   -0.9600160000 	   -0.2866690000 	    0.0016230000
C   	    0.4886190000 	   -0.1526170000 	   -0.0181670000
N   	    0.9497050000 	    1.0503780000 	   -0.0573110000
C   	    2.3868450000 	    1.2950250000 	   -0.0678230000
C   	    3.2409490000 	    0.1166310000 	    0.3920540000
C   	    2.7839720000 	   -1.1539420000 	   -0.3188340000
C   	    1.3181380000 	   -1.4166210000 	    0.0152930000
N   	   -1.6528850000 	   -1.5259930000 	    0.0419300000
C   	   -2.9071920000 	   -1.2572600000 	    0.0535980000
C   	   -3.2167160000 	    0.2194600000 	    0.0212360000
H   	   -0.5283390000 	    2.0683080000 	   -0.0688980000
H   	    2.5749710000 	    2.1748880000 	    0.5584060000
H   	    2.6671600000 	    1.5831270000 	   -1.0915990000
H   	    3.1333570000 	   -0.0132240000 	    1.4775990000
H   	    4.2982410000 	    0.3277180000 	    0.1952350000
H   	    3.3988850000 	   -2.0143530000 	   -0.0333840000
H   	    2.9003180000 	   -1.0239620000 	   -1.4032370000
H   	    1.2185100000 	   -1.8492690000 	    1.0204470000
H   	    0.8620350000 	   -2.1477630000 	   -0.6602620000
H   	   -3.6599180000 	   -2.0409550000 	    0.0834540000
H   	   -3.7728010000 	    0.5535510000 	    0.9056160000
H   	   -3.7998270000 	    0.5091030000 	   -0.8614350000
