23
tauto -608.786355805
O   	   -1.0889120000 	    2.2998600000 	   -0.3792030000
C   	   -1.3551240000 	    1.1329280000 	   -0.2507340000
O   	   -2.3666890000 	    0.7758700000 	    0.5611100000
C   	   -2.8456240000 	   -0.5712190000 	    0.6676060000
C   	   -1.7846080000 	   -1.6192810000 	    0.3956830000
C   	   -1.1698110000 	   -1.3413300000 	   -0.9692770000
C   	   -0.5357440000 	    0.0596520000 	   -0.9711810000
C   	    0.8537240000 	    0.0210740000 	   -0.3673760000
N   	    1.8652360000 	   -0.1541600000 	   -1.2204010000
C   	    3.0849740000 	   -0.2117540000 	   -0.6861970000
C   	    3.3093000000 	   -0.0996160000 	    0.6792300000
C   	    2.1811730000 	    0.0596080000 	    1.4717520000
N   	    0.9516520000 	    0.1165610000 	    0.9610480000
H   	   -3.6800090000 	   -0.6828080000 	   -0.0376800000
H   	   -3.2460510000 	   -0.6493310000 	    1.6814970000
H   	   -2.2526730000 	   -2.6096010000 	    0.4276810000
H   	   -1.0169980000 	   -1.5819170000 	    1.1764900000
H   	   -1.9531980000 	   -1.3843560000 	   -1.7373110000
H   	   -0.4151470000 	   -2.0866170000 	   -1.2429550000
H   	   -0.4129500000 	    0.4151280000 	   -1.9973110000
H   	    3.9091170000 	   -0.3505130000 	   -1.3844510000
H   	    4.3070010000 	   -0.1388820000 	    1.1027660000
H   	    2.2579400000 	    0.1458790000 	    2.5544490000
