18
tauto -477.022196895
O   	   -3.3862260000 	   -0.5056070000 	   -0.0001840000
C   	   -2.0762580000 	   -0.1650260000 	   -0.0000200000
C   	   -1.0598910000 	   -1.0930480000 	    0.0000300000
C   	    0.2796400000 	   -0.6382060000 	    0.0000690000
C   	    1.4065190000 	   -1.5060620000 	    0.0000440000
C   	    2.6740930000 	   -0.9892030000 	   -0.0000190000
C   	    2.8931250000 	    0.4130740000 	   -0.0000890000
C   	    1.8262270000 	    1.2693860000 	   -0.0000610000
C   	    0.5019440000 	    0.7594810000 	    0.0000710000
C   	   -0.6424800000 	    1.5979690000 	    0.0001510000
N   	   -1.8794130000 	    1.1714040000 	    0.0000150000
H   	   -3.4563010000 	   -1.4687900000 	    0.0005090000
H   	   -1.2711520000 	   -2.1606150000 	   -0.0000270000
H   	    1.2457570000 	   -2.5818430000 	    0.0000920000
H   	    3.5296430000 	   -1.6601660000 	   -0.0000110000
H   	    3.9090120000 	    0.7981840000 	   -0.0001780000
H   	    1.9755840000 	    2.3473070000 	   -0.0000640000
H   	   -0.5043660000 	    2.6807570000 	   -0.0000080000
