12
tauto -265.404556244
C   	    0.6860480000 	    1.1510750000 	    0.3094470000
C   	    1.3331790000 	   -0.1571090000 	   -0.0612980000
N   	    0.6936090000 	   -1.2538000000 	   -0.1907420000
N   	   -0.6670590000 	   -1.2680650000 	    0.1908170000
C   	   -1.3295770000 	   -0.1851320000 	    0.0611820000
C   	   -0.7101130000 	    1.1364250000 	   -0.3093400000
H   	    1.2885240000 	    1.9885010000 	   -0.0526370000
H   	    0.6204220000 	    1.2421200000 	    1.4030330000
H   	    2.3962570000 	   -0.1942050000 	   -0.3000870000
H   	   -2.3917100000 	   -0.2447600000 	    0.2995980000
H   	   -1.3303320000 	    1.9609290000 	    0.0525280000
H   	   -0.6462330000 	    1.2289130000 	   -1.4029110000
