16
tauto -512.886525979
O   	   -2.2761200000 	    1.5413030000 	    0.0000110000
C   	   -1.6615740000 	    0.5037160000 	   -0.0001450000
C   	   -2.2950730000 	   -0.8850830000 	    0.0000600000
C   	   -1.3254870000 	   -1.7995010000 	   -0.0000120000
C   	   -0.1901380000 	    0.2703430000 	    0.0000090000
C   	   -0.0199060000 	   -1.0831840000 	   -0.0000170000
N   	    1.1977190000 	   -1.6666150000 	   -0.0000340000
C   	    2.3267960000 	   -0.8642420000 	   -0.0000300000
C   	    2.2337120000 	    0.4793430000 	    0.0000100000
C   	    0.9366780000 	    1.1971090000 	    0.0002420000
O   	    0.8615380000 	    2.4161580000 	   -0.0000810000
H   	   -3.3667560000 	   -1.0414230000 	    0.0001290000
H   	   -1.4261130000 	   -2.8800470000 	   -0.0000120000
H   	    1.2888660000 	   -2.6709620000 	    0.0001420000
H   	    3.2723080000 	   -1.3963070000 	   -0.0001150000
H   	    3.1342650000 	    1.0843550000 	   -0.0000480000
