21
tauto -516.341291823
C   	   -0.7318170000 	    2.7380440000 	   -0.0000050000
C   	   -0.7265040000 	    1.2320000000 	   -0.0000190000
N   	   -1.9014680000 	    0.6404400000 	   -0.0000200000
C   	   -1.9560000000 	   -0.7099430000 	   -0.0000190000
O   	   -3.1974900000 	   -1.2407270000 	   -0.0000040000
C   	   -0.8565480000 	   -1.5281580000 	    0.0000360000
C   	    0.4182830000 	   -0.9197230000 	    0.0000240000
C   	    1.6252150000 	   -1.6744670000 	   -0.0000070000
C   	    2.8388990000 	   -1.0446140000 	   -0.0000360000
C   	    2.9194270000 	    0.3714550000 	    0.0000030000
C   	    1.7753100000 	    1.1217640000 	    0.0000200000
C   	    0.4982520000 	    0.4966250000 	    0.0000080000
H   	   -1.7642750000 	    3.0913920000 	   -0.0005840000
H   	   -0.2217960000 	    3.1376540000 	   -0.8837160000
H   	   -0.2228160000 	    3.1375980000 	    0.8843230000
H   	   -3.8051640000 	   -0.4855210000 	    0.0000110000
H   	   -0.9713270000 	   -2.6072230000 	    0.0000900000
H   	    1.5624020000 	   -2.7602500000 	   -0.0000110000
H   	    3.7544680000 	   -1.6310130000 	   -0.0000810000
H   	    3.8921090000 	    0.8555270000 	    0.0000270000
H   	    1.8394920000 	    2.2066770000 	    0.0000930000
