9
tauto -317.309123621
O   	    2.0197030000 	   -0.0407040000 	    0.0000010000
N   	    0.7482990000 	   -0.0266370000 	   -0.0000080000
C   	   -0.0911680000 	   -1.0704110000 	   -0.0000390000
N   	   -1.3402490000 	   -0.5630130000 	    0.0000680000
H   	   -2.2139810000 	   -1.0642650000 	    0.0002210000
N   	   -1.3405140000 	    0.7737570000 	   -0.0001210000
C   	   -0.0684850000 	    1.0902380000 	    0.0000700000
H   	    0.2024030000 	   -2.1067510000 	   -0.0001000000
H   	    0.3391250000 	    2.0889320000 	    0.0001130000
