21
tauto -627.631571637
C   	   -3.3930110000 	    0.3413440000 	   -0.7948510000
C   	   -2.9730390000 	   -0.5183320000 	    0.3807280000
O   	   -1.6527840000 	   -0.1496630000 	    0.8374360000
C   	   -0.6307700000 	   -0.6145600000 	    0.1265520000
C   	    0.6714360000 	   -0.0181870000 	    0.6357130000
C   	    1.9110960000 	   -0.6313650000 	    0.0669950000
C   	    2.2884490000 	   -2.0692390000 	    0.1493690000
N   	    2.6598550000 	    0.2211320000 	   -0.5213900000
O   	    2.0451220000 	    1.4930030000 	   -0.4684820000
C   	    0.8422520000 	    1.4258060000 	    0.1673110000
O   	    0.1114800000 	    2.3622360000 	    0.2934520000
O   	   -0.7062810000 	   -1.3864560000 	   -0.7992220000
H   	   -4.4358010000 	    0.1312120000 	   -1.0536480000
H   	   -2.7720030000 	    0.1291010000 	   -1.6693620000
H   	   -3.3017440000 	    1.4019520000 	   -0.5433170000
H   	   -2.9708620000 	   -1.5814550000 	    0.1261150000
H   	   -3.6088860000 	   -0.3531250000 	    1.2524760000
H   	    0.6614820000 	   -0.0272750000 	    1.7320070000
H   	    2.3497830000 	   -2.3936250000 	    1.1940240000
H   	    3.2551180000 	   -2.2279880000 	   -0.3330630000
H   	    1.5251520000 	   -2.6724890000 	   -0.3518650000
