20
tauto -528.53979356
N   	    3.8713660000 	   -0.9096480000 	    0.0669360000
C   	    2.6838780000 	   -0.2060990000 	    0.0209600000
N   	    2.6323960000 	    1.1011220000 	   -0.1671730000
N   	    1.2905490000 	    1.3155170000 	   -0.1875060000
H   	    0.9393820000 	    2.2389520000 	   -0.3827120000
C   	    0.6184700000 	    0.1651490000 	   -0.0150820000
C   	   -0.8467890000 	    0.0435050000 	    0.0042360000
C   	   -1.4174210000 	   -1.2239840000 	   -0.1321390000
C   	   -2.7985170000 	   -1.3706510000 	   -0.1264940000
C   	   -3.6215850000 	   -0.2557200000 	    0.0142770000
C   	   -3.0570150000 	    1.0083010000 	    0.1575330000
C   	   -1.6750750000 	    1.1577890000 	    0.1562830000
N   	    1.4794900000 	   -0.8297930000 	    0.1247930000
H   	    4.6653520000 	   -0.3425840000 	    0.3279980000
H   	    3.8009360000 	   -1.7625190000 	    0.6030310000
H   	   -0.7592920000 	   -2.0810530000 	   -0.2411950000
H   	   -3.2359630000 	   -2.3595310000 	   -0.2354120000
H   	   -4.7021590000 	   -0.3725460000 	    0.0170790000
H   	   -3.6936650000 	    1.8807460000 	    0.2781400000
H   	   -1.2468680000 	    2.1484160000 	    0.2962720000
