30
tauto -817.452295877
O   	    3.6612450000 	   -2.6164620000 	   -0.1179620000
C   	    2.5323870000 	   -2.1925930000 	   -0.0258730000
N   	    1.3969000000 	   -3.0269360000 	    0.1026240000
N   	    0.2290380000 	   -2.5277800000 	    0.0968470000
C   	   -0.0260430000 	   -1.1738550000 	   -0.0107180000
C   	   -1.4636980000 	   -0.8149170000 	   -0.1087070000
C   	   -2.4005180000 	   -1.5196520000 	    0.6525560000
C   	   -3.7544440000 	   -1.2188530000 	    0.5584370000
C   	   -4.1911660000 	   -0.2146860000 	   -0.3009230000
C   	   -3.2659160000 	    0.4819170000 	   -1.0728600000
C   	   -1.9116760000 	    0.1810410000 	   -0.9813380000
C   	    1.0195070000 	   -0.2864470000 	    0.0163770000
C   	    0.9474150000 	    1.1924670000 	    0.0961070000
C   	    1.7618050000 	    1.9745850000 	   -0.7275290000
C   	    1.7308240000 	    3.3619360000 	   -0.6276950000
C   	    0.8949200000 	    3.9731680000 	    0.3009090000
C   	    0.0853140000 	    3.1962620000 	    1.1270170000
C   	    0.1069410000 	    1.8116090000 	    1.0256780000
N   	    2.2691350000 	   -0.8247840000 	    0.0081420000
H   	   -2.0567950000 	   -2.3136590000 	    1.3093930000
H   	   -4.4711500000 	   -1.7739510000 	    1.1581300000
H   	   -5.2503120000 	    0.0176350000 	   -0.3764070000
H   	   -3.5995680000 	    1.2554120000 	   -1.7597390000
H   	   -1.1978960000 	    0.7178250000 	   -1.6015170000
H   	    2.4033600000 	    1.4997970000 	   -1.4675740000
H   	    2.3589430000 	    3.9639120000 	   -1.2784150000
H   	    0.8725750000 	    5.0565750000 	    0.3821370000
H   	   -0.5653420000 	    3.6714540000 	    1.8558000000
H   	   -0.5245050000 	    1.2037060000 	    1.6675430000
H   	    3.0813030000 	   -0.2223970000 	    0.0724310000
