7
tauto -258.190322785
C   	    0.9510330000 	   -0.5313240000 	    0.0000100000
N   	   -0.1927970000 	   -1.1697960000 	    0.0000020000
N   	   -1.1492830000 	   -0.2113780000 	    0.0000010000
N   	   -0.6332820000 	    0.9636640000 	    0.0000020000
N   	    0.6955350000 	    0.7858140000 	   -0.0000260000
H   	    1.3156050000 	    1.5814440000 	    0.0001030000
H   	    1.9369810000 	   -0.9716260000 	   -0.0000230000
