22
tauto -454.752499835
C   	    3.3293250000 	    0.9596510000 	   -0.5779670000
C   	    2.7886060000 	   -0.0024140000 	    0.4812400000
C   	    1.3551980000 	   -0.3561900000 	    0.2419120000
N   	    0.9523320000 	   -1.5948840000 	    0.0686550000
N   	   -0.3918740000 	   -1.4344930000 	   -0.1154490000
H   	   -0.9730610000 	   -2.2400800000 	   -0.2739310000
C   	   -0.7140750000 	   -0.1235580000 	   -0.0546090000
N   	   -1.9812930000 	    0.3672870000 	   -0.2469590000
C   	   -2.2232030000 	    1.7191210000 	    0.2257510000
C   	   -3.0840270000 	   -0.5636030000 	   -0.1454160000
N   	    0.3704200000 	    0.5915140000 	    0.1804070000
H   	    4.3674230000 	    1.2341580000 	   -0.3635180000
H   	    2.7269250000 	    1.8727470000 	   -0.6061150000
H   	    3.2957910000 	    0.5019200000 	   -1.5724100000
H   	    2.8758830000 	    0.4591540000 	    1.4725600000
H   	    3.3681230000 	   -0.9307480000 	    0.5001710000
H   	   -1.3475430000 	    2.3302630000 	    0.0058780000
H   	   -2.4095600000 	    1.7543630000 	    1.3098260000
H   	   -3.0925270000 	    2.1288140000 	   -0.2975390000
H   	   -2.9585120000 	   -1.3860990000 	   -0.8589200000
H   	   -4.0074370000 	   -0.0446750000 	   -0.4143790000
H   	   -3.2035410000 	   -0.9838250000 	    0.8663350000
