16
tauto -376.155002261
C   	    2.7317770000 	   -0.7781960000 	    0.4685140000
C   	    2.0573550000 	    0.2372280000 	   -0.4553430000
C   	    0.5844370000 	    0.3267930000 	   -0.2112910000
N   	   -0.0153130000 	    1.4546970000 	    0.0996470000
N   	   -1.3156130000 	    1.0614120000 	    0.2258940000
H   	   -2.0124620000 	    1.7113730000 	    0.5513610000
C   	   -1.4198840000 	   -0.2608280000 	   -0.0075880000
N   	   -2.6042340000 	   -0.9660160000 	    0.1053870000
N   	   -0.2399770000 	   -0.7648850000 	   -0.2957600000
H   	    3.8010600000 	   -0.8584400000 	    0.2471930000
H   	    2.2765930000 	   -1.7655490000 	    0.3452180000
H   	    2.6211440000 	   -0.4843590000 	    1.5177550000
H   	    2.2247140000 	   -0.0506930000 	   -1.5005690000
H   	    2.4845150000 	    1.2358040000 	   -0.3199980000
H   	   -3.4045890000 	   -0.5208780000 	   -0.3240110000
H   	   -2.4871280000 	   -1.9137030000 	   -0.2288760000
