19
tauto -548.392347045
O   	   -3.8082240000 	   -0.9543640000 	   -0.2139350000
C   	   -2.7559870000 	   -0.3920510000 	   -0.0445990000
N   	   -1.4542480000 	   -0.9110440000 	   -0.1798350000
C   	   -0.6540290000 	    0.0922010000 	   -0.0299880000
C   	    0.8150160000 	    0.0134510000 	   -0.0275640000
C   	    1.5978380000 	    1.1564090000 	   -0.2062700000
C   	    2.9839830000 	    1.0565510000 	   -0.1871810000
C   	    3.5886740000 	   -0.1828500000 	    0.0041070000
C   	    2.8082740000 	   -1.3251780000 	    0.1709150000
C   	    1.4230640000 	   -1.2303070000 	    0.1547900000
N   	   -1.2875700000 	    1.3143480000 	    0.1442960000
N   	   -2.6341350000 	    0.9705390000 	    0.3277820000
H   	    1.1234860000 	    2.1182440000 	   -0.3881570000
H   	    3.5922790000 	    1.9452050000 	   -0.3312760000
H   	    4.6727570000 	   -0.2602320000 	    0.0175340000
H   	    3.2820300000 	   -2.2922300000 	    0.3148470000
H   	    0.7932410000 	   -2.1062510000 	    0.2803990000
H   	   -0.9220030000 	    1.8877640000 	    0.8985110000
H   	   -3.2853280000 	    1.5961420000 	   -0.1313260000
