14
tauto -320.784638981
C   	    0.6158760000 	    2.0666350000 	   -0.0000030000
C   	    0.4045060000 	    0.5894730000 	    0.0000090000
C   	   -0.7192110000 	   -0.2037930000 	   -0.0000090000
C   	   -2.1646050000 	    0.1752640000 	   -0.0000120000
N   	   -0.3248090000 	   -1.5119690000 	    0.0000640000
N   	    0.9667540000 	   -1.5731070000 	   -0.0000720000
N   	    1.4168520000 	   -0.3145550000 	    0.0000270000
H   	    2.4122740000 	   -0.1499380000 	    0.0000290000
H   	   -0.3481440000 	    2.5814080000 	    0.0000530000
H   	    1.1685960000 	    2.3955990000 	   -0.8868700000
H   	    1.1686950000 	    2.3956010000 	    0.8868010000
H   	   -2.2907810000 	    1.2622740000 	   -0.0005760000
H   	   -2.6707080000 	   -0.2260320000 	    0.8834640000
H   	   -2.6709090000 	   -0.2269720000 	   -0.8829420000
