17
tauto -309.780758614
C   	    3.1462760000 	    0.2138970000 	   -0.4438180000
C   	    1.8743600000 	    0.1241060000 	    0.3463050000
C   	    0.8129140000 	   -0.6007820000 	   -0.0005070000
C   	   -0.4676090000 	   -0.6812640000 	    0.7901400000
C   	   -1.6149960000 	   -0.0784920000 	   -0.0157630000
C   	   -1.7176520000 	    1.4304850000 	   -0.0107420000
O   	   -2.3780660000 	   -0.7787620000 	   -0.6443330000
H   	    3.3632960000 	    1.2513950000 	   -0.7249990000
H   	    3.0888200000 	   -0.3827750000 	   -1.3597320000
H   	    4.0007190000 	   -0.1430880000 	    0.1434860000
H   	    1.8400790000 	    0.6939250000 	    1.2775570000
H   	    0.8343160000 	   -1.1768130000 	   -0.9272300000
H   	   -0.3514940000 	   -0.1463240000 	    1.7409670000
H   	   -0.7267950000 	   -1.7248980000 	    0.9969470000
H   	   -2.0496780000 	    1.7720890000 	    0.9773120000
H   	   -2.4369650000 	    1.7573820000 	   -0.7636230000
H   	   -0.7375250000 	    1.8815020000 	   -0.1997010000
