27
tauto -757.282436479
C   	    4.5315140000 	   -1.5388380000 	    0.0113240000
C   	    3.5603050000 	   -0.4047090000 	   -0.0083240000
C   	    2.1281100000 	   -0.5478600000 	    0.0292470000
N   	    1.3579320000 	   -1.6147200000 	    0.0702370000
N   	    0.0388270000 	   -1.3919510000 	    0.0689680000
C   	   -0.5236820000 	   -0.1986920000 	    0.0206900000
C   	   -2.0124270000 	   -0.1637900000 	    0.0074900000
C   	   -2.7362690000 	    1.0304080000 	    0.1048130000
C   	   -4.1286750000 	    1.0102340000 	    0.0982840000
C   	   -4.8182420000 	   -0.1910820000 	   -0.0069900000
C   	   -4.1039400000 	   -1.3835520000 	   -0.1053940000
C   	   -2.7171110000 	   -1.3714380000 	   -0.0980080000
C   	    3.7857020000 	    0.9372350000 	   -0.0505710000
N   	    2.6055450000 	    1.6356370000 	    0.0355330000
N   	    1.6098550000 	    0.7117160000 	    0.0140150000
C   	    0.2587820000 	    1.0367340000 	   -0.0249310000
O   	   -0.0601810000 	    2.2161230000 	   -0.0974170000
H   	    4.3119120000 	   -2.2463680000 	   -0.7939800000
H   	    4.4663300000 	   -2.0902580000 	    0.9547740000
H   	    5.5569180000 	   -1.1788850000 	   -0.1095990000
H   	   -2.2109330000 	    1.9744490000 	    0.1816190000
H   	   -4.6738700000 	    1.9476310000 	    0.1765070000
H   	   -5.9054890000 	   -0.2012900000 	   -0.0135650000
H   	   -4.6310710000 	   -2.3306510000 	   -0.1900220000
H   	   -2.1571470000 	   -2.2977110000 	   -0.1711570000
H   	    4.7216110000 	    1.4782810000 	   -0.0955010000
H   	    2.3736720000 	    2.5431340000 	   -0.3468010000
