10
tauto -193.099215671
C   	    1.3092320000 	   -0.6085210000 	    0.0000070000
C   	    0.0000000000 	    0.1610000000 	   -0.0000570000
C   	   -1.3092320000 	   -0.6085210000 	    0.0000070000
O   	    0.0000000000 	    1.3731660000 	    0.0000140000
H   	    1.1761610000 	   -1.6927930000 	    0.0000190000
H   	    1.8908170000 	   -0.3158580000 	    0.8801220000
H   	    1.8908790000 	   -0.3158840000 	   -0.8800750000
H   	   -1.1761610000 	   -1.6927930000 	    0.0000140000
H   	   -1.8908820000 	   -0.3158790000 	   -0.8800710000
H   	   -1.8908150000 	   -0.3158630000 	    0.8801250000
