15
tauto -467.180583161
N   	   -1.9463040000 	   -1.7540180000 	   -0.0354150000
C   	   -1.2503190000 	   -0.5907550000 	   -0.0052540000
N   	   -1.9481600000 	    0.5448220000 	   -0.0026030000
C   	   -1.2655080000 	    1.7042510000 	   -0.0012170000
N   	    0.0411060000 	    1.9020750000 	    0.0045530000
C   	    0.7152050000 	    0.7390210000 	    0.0033110000
C   	    0.1634900000 	   -0.5461290000 	   -0.0042890000
C   	    1.2890340000 	   -1.4210920000 	   -0.0076280000
N   	    2.4129150000 	   -0.7406740000 	   -0.0008750000
N   	    2.0570710000 	    0.5656650000 	    0.0066690000
H   	    2.7669270000 	    1.2806700000 	    0.0090490000
H   	   -2.9420880000 	   -1.6894850000 	    0.1111450000
H   	   -1.4916670000 	   -2.6245070000 	    0.1846780000
H   	   -1.8847310000 	    2.6000120000 	   -0.0014490000
H   	    1.3237540000 	   -2.5035470000 	   -0.0192610000
