17
tauto -584.200833898
O   	    2.8841840000 	   -1.4295750000 	    0.0012150000
N   	    2.5740660000 	   -0.2503710000 	   -0.0000290000
C   	    1.1386340000 	    0.0799020000 	    0.0000460000
C   	    0.2420130000 	   -0.9629940000 	   -0.0001770000
C   	   -1.1086290000 	   -0.5941270000 	   -0.0001530000
N   	   -2.2508430000 	   -1.3367810000 	   -0.0004020000
H   	   -2.3476380000 	   -2.3391780000 	   -0.0006490000
N   	   -3.3598910000 	   -0.5747110000 	   -0.0002230000
C   	   -2.9514300000 	    0.6737310000 	    0.0001310000
C   	   -1.5250050000 	    0.7515560000 	    0.0001980000
C   	   -0.5644160000 	    1.7797560000 	    0.0004620000
C   	    0.7689860000 	    1.4404930000 	    0.0003320000
O   	    3.3666610000 	    0.6745380000 	   -0.0013430000
H   	    0.5879600000 	   -1.9901730000 	   -0.0002750000
H   	   -3.6750540000 	    1.4784170000 	    0.0003200000
H   	   -0.8661190000 	    2.8231800000 	    0.0007710000
H   	    1.5498500000 	    2.1912000000 	    0.0004080000
