26
tauto -573.800952624
C   	   -1.6187330000 	    2.7887360000 	    0.0720370000
C   	   -1.5027670000 	    1.3027320000 	   -0.0354540000
N   	   -2.6657760000 	    0.5266090000 	   -0.0121290000
N   	   -2.3091130000 	   -0.8204450000 	   -0.3055200000
C   	   -3.0811500000 	   -1.8034270000 	    0.4352270000
C   	   -0.9230980000 	   -0.8648880000 	   -0.2277190000
C   	    0.0853420000 	   -1.7756620000 	   -0.1739650000
C   	   -0.4248630000 	    0.4925440000 	   -0.1273640000
C   	    1.0215540000 	    0.4016080000 	   -0.0424660000
C   	    1.3180080000 	   -0.9926930000 	   -0.0724090000
C   	    2.6520560000 	   -1.4008420000 	   -0.0054560000
C   	    3.6549490000 	   -0.4420300000 	    0.0916020000
C   	    3.3547910000 	    0.9237420000 	    0.1213090000
C   	    2.0326520000 	    1.3513470000 	    0.0526230000
H   	   -2.6637320000 	    3.1125210000 	    0.0661980000
H   	   -1.0943590000 	    3.2782480000 	   -0.7541580000
H   	   -1.1660300000 	    3.1357050000 	    1.0066910000
H   	   -3.4066920000 	    0.8463320000 	   -0.6314260000
H   	   -4.1447080000 	   -1.6791410000 	    0.2142180000
H   	   -2.9200830000 	   -1.7198430000 	    1.5180040000
H   	   -2.7713270000 	   -2.7951790000 	    0.0973180000
H   	    0.0265820000 	   -2.8563330000 	   -0.2115520000
H   	    2.9049500000 	   -2.4587430000 	   -0.0277740000
H   	    4.6937080000 	   -0.7603980000 	    0.1459250000
H   	    4.1571390000 	    1.6529380000 	    0.1982400000
H   	    1.7963320000 	    2.4137470000 	    0.0740730000
