13
tauto -411.842986312
C   	   -2.2633080000 	    0.0972430000 	    0.0002980000
N   	   -1.5569830000 	    1.1896800000 	   -0.0001710000
C   	   -0.2460780000 	    0.7369680000 	   -0.0000080000
C   	    0.9904000000 	    1.3731800000 	   -0.0000010000
N   	    2.1113910000 	    0.6539360000 	    0.0000300000
C   	    2.0018000000 	   -0.6837250000 	    0.0000130000
N   	    0.8907660000 	   -1.4173580000 	    0.0000250000
C   	   -0.2028910000 	   -0.6650480000 	    0.0000180000
N   	   -1.5170900000 	   -1.0587070000 	   -0.0001760000
H   	   -1.8535490000 	   -2.0091350000 	   -0.0002510000
H   	   -3.3463880000 	    0.0627860000 	    0.0003400000
H   	    1.0846150000 	    2.4577000000 	   -0.0000700000
H   	    2.9392030000 	   -1.2359090000 	    0.0001100000
