16
tauto -271.71223828
C   	   -0.9634680000 	    1.4845280000 	   -0.3771520000
C   	   -0.6494940000 	    0.1929630000 	    0.3913340000
C   	   -1.7160210000 	   -0.8720300000 	    0.1659560000
C   	    0.7370430000 	   -0.3287520000 	    0.0237980000
C   	    1.9078740000 	    0.6166340000 	    0.2162200000
O   	    0.9038870000 	   -1.4473530000 	   -0.4140810000
H   	   -1.9588950000 	    1.8516880000 	   -0.1068940000
H   	   -0.9577550000 	    1.3025610000 	   -1.4585950000
H   	   -0.2444840000 	    2.2815810000 	   -0.1608500000
H   	   -0.6059470000 	    0.4438460000 	    1.4628200000
H   	   -1.7814890000 	   -1.1317490000 	   -0.8956880000
H   	   -2.6955120000 	   -0.5079750000 	    0.4943760000
H   	   -1.4815680000 	   -1.7897210000 	    0.7117500000
H   	    1.8043830000 	    1.2141900000 	    1.1281550000
H   	    1.9595180000 	    1.3132180000 	   -0.6290340000
H   	    2.8350520000 	    0.0411240000 	    0.2456700000
