15
tauto -467.204808962
N   	    1.8586760000 	   -1.7999320000 	   -0.0326580000
C   	    1.2229540000 	   -0.6078880000 	   -0.0049790000
N   	    1.9471880000 	    0.5162900000 	    0.0036890000
C   	    1.2942740000 	    1.6885970000 	    0.0034100000
N   	   -0.0130820000 	    1.9191400000 	   -0.0004780000
C   	   -0.7037990000 	    0.7725250000 	   -0.0026970000
C   	   -0.1819570000 	   -0.5139780000 	   -0.0044830000
N   	   -1.1829790000 	   -1.4695240000 	    0.0007120000
C   	   -2.2802390000 	   -0.7665880000 	    0.0031710000
N   	   -2.0647530000 	    0.5916920000 	    0.0006990000
H   	   -2.7580840000 	    1.3234890000 	    0.0025330000
H   	    2.8562880000 	   -1.8103410000 	    0.1057160000
H   	    1.3285200000 	   -2.6450950000 	    0.1054720000
H   	    1.9325050000 	    2.5707420000 	    0.0086560000
H   	   -3.2819760000 	   -1.1784730000 	    0.0073390000
