13
tauto -503.06754296
O   	   -1.7445900000 	   -1.9442060000 	    0.0000240000
C   	   -1.1683000000 	   -0.8821820000 	   -0.0001200000
N   	   -1.9004820000 	    0.3409420000 	   -0.0000200000
C   	   -1.3733660000 	    1.5981320000 	    0.0000090000
N   	   -0.1102530000 	    1.8831870000 	    0.0000170000
C   	    0.6553990000 	    0.7511910000 	    0.0000270000
C   	    0.2469390000 	   -0.5698140000 	   -0.0000230000
N   	    1.3471560000 	   -1.3783250000 	    0.0002090000
N   	    2.3952420000 	   -0.6321850000 	   -0.0002030000
N   	    1.9985960000 	    0.6626750000 	    0.0000470000
H   	    2.6858680000 	    1.4018840000 	    0.0000460000
H   	   -2.9063180000 	    0.2251350000 	    0.0000060000
H   	   -2.0986790000 	    2.4086080000 	    0.0000470000
