17
tauto -584.229772081
O   	    1.9468920000 	   -1.6872370000 	    0.0000760000
N   	    2.0548760000 	   -0.4641600000 	   -0.0000050000
C   	    0.8234000000 	    0.3048060000 	    0.0000000000
C   	   -0.4118060000 	   -0.3467060000 	   -0.0000050000
N   	   -0.7995330000 	   -1.6577880000 	   -0.0000500000
H   	   -0.1618040000 	   -2.4395800000 	    0.0000310000
C   	   -2.1712440000 	   -1.6564990000 	    0.0000040000
N   	   -2.6985130000 	   -0.4671710000 	   -0.0000030000
C   	   -1.6100240000 	    0.3925910000 	   -0.0000050000
C   	   -1.5729030000 	    1.7879970000 	    0.0000050000
C   	   -0.3370920000 	    2.4217420000 	    0.0000170000
C   	    0.8566150000 	    1.6891870000 	    0.0000130000
O   	    3.1153780000 	    0.1303580000 	   -0.0000570000
H   	   -2.7307060000 	   -2.5842740000 	   -0.0000030000
H   	   -2.5001710000 	    2.3531380000 	    0.0000080000
H   	   -0.2860780000 	    3.5061690000 	    0.0000310000
H   	    1.8211140000 	    2.1847090000 	    0.0000140000
