34
tauto -894.816442663
O   	   -3.4644220000 	    0.6279350000 	   -0.6144540000
C   	   -2.4998800000 	   -0.0968790000 	   -0.6956370000
C   	   -2.2644020000 	   -1.1900820000 	   -1.6624850000
C   	   -1.1750300000 	   -1.8789680000 	   -1.3184830000
C   	   -0.4937140000 	   -1.3621860000 	   -0.0654530000
C   	    1.0087690000 	   -1.2278560000 	   -0.2084410000
C   	    1.5530070000 	   -0.7006470000 	   -1.3808870000
C   	    2.9272980000 	   -0.5374720000 	   -1.5097390000
C   	    3.7734570000 	   -0.9047620000 	   -0.4671880000
C   	    3.2370860000 	   -1.4339700000 	    0.7019040000
C   	    1.8608140000 	   -1.5949000000 	    0.8321440000
N   	   -0.8458380000 	   -2.3136070000 	    1.0277260000
N   	   -1.5834160000 	   -1.7653420000 	    1.8647310000
N   	   -1.7599620000 	   -0.4389100000 	    1.6240890000
C   	   -1.3039450000 	   -0.0692200000 	    0.2917230000
C   	   -0.5529050000 	    1.2463560000 	    0.2766270000
C   	   -0.5890080000 	    2.0853470000 	   -0.8373000000
C   	    0.1542630000 	    3.2618360000 	   -0.8588800000
C   	    0.9385370000 	    3.6131800000 	    0.2340010000
C   	    0.9753900000 	    2.7819180000 	    1.3501930000
C   	    0.2348610000 	    1.6063300000 	    1.3709420000
H   	   -2.9339780000 	   -1.3925550000 	   -2.4907040000
H   	   -0.7889220000 	   -2.7605090000 	   -1.8218640000
H   	    0.8962600000 	   -0.4046330000 	   -2.1969120000
H   	    3.3379510000 	   -0.1219160000 	   -2.4262530000
H   	    4.8484060000 	   -0.7791900000 	   -0.5677400000
H   	    3.8921540000 	   -1.7272340000 	    1.5182940000
H   	    1.4431810000 	   -2.0206580000 	    1.7402710000
H   	   -2.6289200000 	   -0.0633690000 	    1.9828670000
H   	   -1.2079780000 	    1.8339570000 	   -1.6953930000
H   	    0.1125170000 	    3.9078020000 	   -1.7320660000
H   	    1.5156460000 	    4.5341620000 	    0.2186290000
H   	    1.5841210000 	    3.0497690000 	    2.2099590000
H   	    0.2618730000 	    0.9577510000 	    2.2424690000
