20
tauto -656.9100252
C   	   -0.0972850000 	    2.8263730000 	    0.0000720000
N   	    0.0348400000 	    1.3753840000 	   -0.0000810000
C   	   -1.0524240000 	    0.5387100000 	   -0.0000250000
C   	   -0.9173580000 	   -0.8216620000 	    0.0000790000
C   	    0.3589180000 	   -1.5035120000 	    0.0000410000
N   	    1.4108890000 	   -0.5785980000 	   -0.0001320000
C   	    2.7787170000 	   -1.0933870000 	   -0.0002250000
O   	    0.5155070000 	   -2.7096240000 	    0.0000870000
N   	   -2.1996830000 	   -1.2607300000 	    0.0000270000
H   	   -2.5431230000 	   -2.2107260000 	    0.0001150000
N   	   -3.0488210000 	   -0.2443310000 	   -0.0000560000
N   	   -2.3647720000 	    0.8690690000 	   -0.0001110000
C   	    1.3061380000 	    0.8281400000 	    0.0000680000
O   	    2.2994000000 	    1.5273120000 	    0.0002580000
H   	   -1.1614130000 	    3.0643030000 	   -0.0008210000
H   	    0.3825440000 	    3.2452530000 	   -0.8872570000
H   	    0.3809800000 	    3.2450320000 	    0.8883620000
H   	    2.7179610000 	   -2.1803190000 	   -0.0021580000
H   	    3.3077540000 	   -0.7409210000 	    0.8874200000
H   	    3.3086330000 	   -0.7376500000 	   -0.8860110000
