12
tauto -427.836589785
C   	   -0.9843930000 	    1.3755380000 	    0.0000250000
C   	    0.2532220000 	    0.7279250000 	   -0.0000030000
N   	    1.5686240000 	    1.1430880000 	   -0.0000830000
N   	    2.3081580000 	    0.0974260000 	    0.0000980000
N   	    1.5284260000 	   -1.0103940000 	   -0.0000300000
H   	    1.9556280000 	   -1.9243920000 	   -0.0000480000
C   	    0.2182340000 	   -0.6656180000 	   -0.0000020000
N   	   -0.8789760000 	   -1.4254830000 	    0.0000020000
C   	   -1.9819970000 	   -0.6911190000 	   -0.0000310000
N   	   -2.0957650000 	    0.6556920000 	    0.0000170000
H   	   -1.0773520000 	    2.4598690000 	    0.0000010000
H   	   -2.9219450000 	   -1.2381450000 	    0.0000730000
