18
tauto -419.073081298
C   	   -3.2393300000 	   -0.5824200000 	    0.0000800000
C   	   -1.7918510000 	   -0.1488030000 	   -0.0000630000
C   	   -1.4623050000 	    1.2229810000 	   -0.0000270000
C   	   -0.1518510000 	    1.6740730000 	    0.0000140000
C   	   -0.7788640000 	   -1.0987640000 	   -0.0000960000
C   	    0.5514040000 	   -0.6724410000 	   -0.0000310000
C   	    0.8460650000 	    0.7019210000 	    0.0000200000
N   	    2.2276230000 	    0.7607390000 	   -0.0000650000
H   	    2.7994380000 	    1.5893010000 	    0.0001060000
C   	    2.6729610000 	   -0.5346850000 	    0.0001020000
N   	    1.7220910000 	   -1.4218610000 	   -0.0000030000
H   	   -3.9142390000 	    0.2792680000 	   -0.0015940000
H   	   -3.4732550000 	   -1.1867090000 	    0.8838580000
H   	   -3.4725660000 	   -1.1896660000 	   -0.8818360000
H   	   -2.2694900000 	    1.9525010000 	   -0.0000370000
H   	    0.0763870000 	    2.7366510000 	   -0.0000020000
H   	   -1.0045820000 	   -2.1627350000 	   -0.0001490000
H   	    3.7329330000 	   -0.7619310000 	    0.0001310000
