24
tauto -660.010175424
C   	   -2.9072860000 	    2.4939380000 	   -0.0002530000
C   	   -1.9731780000 	    1.3309150000 	   -0.0002110000
C   	   -2.2595930000 	   -0.0779100000 	    0.0002440000
N   	   -3.2092800000 	   -1.0203510000 	    0.0002970000
N   	   -2.4877970000 	   -2.1237830000 	    0.0004850000
H   	   -2.9318590000 	   -3.0302580000 	    0.0007220000
N   	   -1.1544100000 	   -2.0299320000 	    0.0003270000
C   	   -1.0132930000 	   -0.7062190000 	    0.0001840000
N   	   -0.6711750000 	    1.4928710000 	   -0.0005850000
N   	   -0.0560430000 	    0.2665920000 	   -0.0005130000
C   	    1.3491310000 	    0.1445470000 	   -0.0002680000
C   	    1.9220340000 	   -1.1272130000 	   -0.0008940000
C   	    3.3073170000 	   -1.2482770000 	   -0.0005950000
C   	    4.1186470000 	   -0.1182360000 	    0.0002510000
C   	    3.5314640000 	    1.1443860000 	    0.0008450000
C   	    2.1495820000 	    1.2860540000 	    0.0006120000
H   	   -3.5537480000 	    2.4749460000 	    0.8834720000
H   	   -3.5547880000 	    2.4741300000 	   -0.8831920000
H   	   -2.3360140000 	    3.4248210000 	   -0.0009920000
H   	    1.2902350000 	   -2.0112850000 	   -0.0015610000
H   	    3.7525570000 	   -2.2397890000 	   -0.0010730000
H   	    5.2003290000 	   -0.2204260000 	    0.0004660000
H   	    4.1550300000 	    2.0348140000 	    0.0015170000
H   	    1.6802490000 	    2.2633640000 	    0.0010820000
