14
tauto -395.806473568
C   	   -2.2774220000 	    0.1085060000 	    0.0003000000
N   	   -1.5634930000 	    1.1981980000 	   -0.0001090000
C   	   -0.2532850000 	    0.7441840000 	   -0.0000190000
C   	    0.9669390000 	    1.4166810000 	   -0.0000370000
C   	    2.1088840000 	    0.6275620000 	    0.0000110000
C   	    2.0026990000 	   -0.7730860000 	    0.0000550000
N   	    0.8525940000 	   -1.4464230000 	    0.0000520000
C   	   -0.2170250000 	   -0.6616840000 	    0.0000370000
N   	   -1.5401640000 	   -1.0465080000 	   -0.0002440000
H   	   -1.8801020000 	   -1.9951310000 	   -0.0002600000
H   	   -3.3608990000 	    0.0820270000 	    0.0003350000
H   	    1.0125520000 	    2.5019620000 	   -0.0000950000
H   	    3.0951570000 	    1.0817120000 	   -0.0000110000
H   	    2.9059930000 	   -1.3804170000 	    0.0000580000
