19
tauto -457.15506048
C   	    1.9074840000 	    1.0729930000 	    0.3688890000
C   	    1.0186250000 	    0.0860840000 	    0.0230440000
C   	   -0.4478970000 	    0.0338610000 	    0.0119730000
C   	   -1.1337660000 	   -1.1646140000 	    0.2357370000
C   	   -2.5237560000 	   -1.2001990000 	    0.2191300000
C   	   -3.2505770000 	   -0.0357280000 	   -0.0079740000
C   	   -2.5769390000 	    1.1641560000 	   -0.2219730000
C   	   -1.1880490000 	    1.1983620000 	   -0.2197890000
N   	    1.8163440000 	   -0.9807070000 	   -0.3375390000
H   	    1.4931070000 	   -1.8558600000 	   -0.7193760000
C   	    3.1109340000 	   -0.5842200000 	   -0.2077370000
N   	    3.2043960000 	    0.6485310000 	    0.2231090000
H   	    1.6797170000 	    2.0635240000 	    0.7425440000
H   	   -0.5782390000 	   -2.0750630000 	    0.4531790000
H   	   -3.0399800000 	   -2.1403730000 	    0.3958210000
H   	   -4.3369980000 	   -0.0625440000 	   -0.0174860000
H   	   -3.1362570000 	    2.0783100000 	   -0.4038060000
H   	   -0.6643380000 	    2.1309260000 	   -0.4149230000
H   	    3.9414660000 	   -1.2378620000 	   -0.4427370000
