17
tauto -526.338189103
C   	   -2.7663440000 	   -0.6358540000 	    0.0003130000
N   	   -1.3186950000 	   -0.6774500000 	   -0.0003750000
C   	   -0.5900250000 	   -1.8481910000 	   -0.0005140000
N   	    0.6845800000 	   -1.9643510000 	   -0.0002590000
C   	    1.5459840000 	   -0.8255160000 	    0.0006020000
O   	    2.7487760000 	   -0.9544100000 	   -0.0001080000
C   	   -0.5481220000 	    0.4561190000 	   -0.0000340000
C   	    0.8239080000 	    0.4475960000 	    0.0002690000
N   	    1.2983230000 	    1.7445020000 	    0.0005150000
C   	    0.2383120000 	    2.4940630000 	   -0.0005990000
N   	   -0.9377830000 	    1.7629900000 	    0.0002350000
H   	   -1.8761760000 	    2.1306790000 	    0.0002430000
H   	   -3.1474820000 	   -1.6590100000 	   -0.0005590000
H   	   -3.1433940000 	   -0.1267610000 	   -0.8940340000
H   	   -3.1426890000 	   -0.1284470000 	    0.8959200000
H   	   -1.2104850000 	   -2.7467380000 	   -0.0008360000
H   	    0.2227700000 	    3.5764260000 	   -0.0009100000
