11
tauto -430.611041624
O   	    2.0515220000 	    1.0506980000 	   -0.0000840000
N   	    1.4242350000 	    0.0077910000 	    0.0002270000
C   	    0.0034640000 	    0.0949120000 	    0.0000920000
C   	   -0.8542390000 	    1.1615450000 	   -0.0000050000
N   	   -2.1386950000 	    0.7049700000 	   -0.0000260000
C   	   -2.0482330000 	   -0.6100240000 	   -0.0000460000
N   	   -0.7661630000 	   -1.0367640000 	   -0.0000090000
H   	   -0.3989880000 	   -1.9777290000 	    0.0000140000
O   	    1.9046280000 	   -1.1195870000 	   -0.0001080000
H   	   -0.6060370000 	    2.2135890000 	    0.0000150000
H   	   -2.8857710000 	   -1.2953220000 	   -0.0000840000
