19
tauto -311.017297334
C   	   -0.9346970000 	   -0.5460440000 	    1.4130610000
C   	   -0.5845230000 	   -0.0657370000 	   -0.0068890000
C   	   -0.8550790000 	   -1.1919730000 	   -1.0146950000
C   	   -1.4271250000 	    1.1626940000 	   -0.3527430000
C   	    0.9022960000 	    0.3212990000 	   -0.0167660000
C   	    1.9368390000 	   -0.7892840000 	   -0.0052790000
O   	    1.2519500000 	    1.4829550000 	   -0.0271470000
H   	   -2.0011410000 	   -0.7938520000 	    1.4667430000
H   	   -0.7319750000 	    0.2357010000 	    2.1536500000
H   	   -0.3716850000 	   -1.4425110000 	    1.6968370000
H   	   -1.9238280000 	   -1.4351230000 	   -1.0191550000
H   	   -0.3089300000 	   -2.1088950000 	   -0.7668430000
H   	   -0.5782360000 	   -0.8926060000 	   -2.0327250000
H   	   -2.4932980000 	    0.9111430000 	   -0.3127050000
H   	   -1.1960640000 	    1.5288190000 	   -1.3584710000
H   	   -1.2318800000 	    1.9798430000 	    0.3465220000
H   	    1.6732290000 	   -1.5993010000 	    0.6820870000
H   	    2.9050540000 	   -0.3667190000 	    0.2689880000
H   	    2.0168910000 	   -1.2258700000 	   -1.0078840000
