16
tauto -542.423801812
N   	   -2.9670880000 	   -0.9991500000 	   -0.0667410000
C   	   -1.6635290000 	   -0.5684300000 	   -0.0047920000
N   	   -1.4728160000 	    0.7871420000 	   -0.0033420000
C   	   -0.2169190000 	    1.4666100000 	    0.0034730000
O   	   -0.1954820000 	    2.6784950000 	   -0.0056000000
N   	   -0.6952500000 	   -1.4408900000 	    0.0052590000
C   	    0.5302230000 	   -0.8473170000 	   -0.0008300000
C   	    0.8518380000 	    0.4983420000 	    0.0104390000
N   	    2.2187020000 	    0.6822310000 	    0.0105130000
C   	    2.7057890000 	   -0.5241190000 	    0.0014200000
N   	    1.7296780000 	   -1.4973420000 	   -0.0050130000
H   	    1.8544560000 	   -2.4976910000 	   -0.0147960000
H   	   -3.6615570000 	   -0.4427260000 	    0.4104970000
H   	   -3.0564530000 	   -1.9924770000 	    0.0945360000
H   	   -2.2680360000 	    1.4075680000 	   -0.0876790000
H   	    3.7584550000 	   -0.7770880000 	   -0.0007620000
