15
tauto -562.310596358
O   	   -0.1818570000 	    2.6462150000 	    0.0000730000
C   	   -0.2899210000 	    1.4353300000 	   -0.0000040000
C   	    0.7699400000 	    0.4582730000 	   -0.0000630000
C   	    0.5493760000 	   -0.8937890000 	   -0.0000840000
N   	   -0.7278340000 	   -1.4051740000 	   -0.0001870000
N   	    1.7070110000 	   -1.6009130000 	   -0.0000450000
C   	    2.6430590000 	   -0.6664850000 	    0.0001890000
N   	    2.1419720000 	    0.5878620000 	   -0.0000290000
H   	    2.6509050000 	    1.4588680000 	   -0.0000340000
N   	   -1.5346870000 	    0.7898900000 	   -0.0001730000
C   	   -1.8341140000 	   -0.5763280000 	    0.0000550000
O   	   -2.9744120000 	   -0.9875610000 	    0.0001890000
H   	   -0.8953020000 	   -2.4005090000 	    0.0001260000
H   	    3.7070270000 	   -0.8637830000 	    0.0003040000
H   	   -2.3477480000 	    1.3925190000 	   -0.0000030000
