21
tauto -640.914409625
C   	   -0.0484860000 	    2.8240650000 	   -0.0000040000
N   	    0.0607880000 	    1.3728480000 	   -0.0000710000
C   	   -1.0439620000 	    0.5543180000 	   -0.0000140000
C   	   -0.9163040000 	   -0.8083230000 	    0.0000860000
C   	    0.3424390000 	   -1.4996320000 	    0.0000570000
N   	    1.4140900000 	   -0.5898320000 	   -0.0000550000
C   	    2.7718610000 	   -1.1257250000 	   -0.0001850000
O   	    0.4914630000 	   -2.7103320000 	    0.0000370000
N   	   -2.2092160000 	   -1.2850970000 	    0.0000460000
H   	   -2.4748010000 	   -2.2582130000 	    0.0001100000
C   	   -3.0135980000 	   -0.2008150000 	   -0.0000460000
N   	   -2.3471840000 	    0.9411030000 	   -0.0001010000
C   	    1.3264380000 	    0.8123400000 	    0.0001320000
O   	    2.3275940000 	    1.5045420000 	    0.0001790000
H   	   -1.1092030000 	    3.0760950000 	   -0.0011060000
H   	    0.4388000000 	    3.2367310000 	   -0.8865190000
H   	    0.4368880000 	    3.2366260000 	    0.8876220000
H   	    2.6914520000 	   -2.2115240000 	   -0.0022480000
H   	    3.3082540000 	   -0.7829720000 	    0.8872120000
H   	    3.3092250000 	   -0.7794910000 	   -0.8856090000
H   	   -4.0927500000 	   -0.2814590000 	   -0.0000780000
