16
tauto -454.903748803
O   	   -2.4208940000 	   -1.2835750000 	   -0.0979080000
N   	   -1.5171910000 	   -0.2618420000 	    0.0121970000
C   	   -0.1460100000 	   -0.3877670000 	   -0.0023730000
C   	    0.7098840000 	   -1.4884980000 	   -0.0114470000
C   	    2.0652920000 	   -1.2073840000 	   -0.0070330000
C   	    2.5446820000 	    0.1185050000 	    0.0071930000
C   	    1.6806170000 	    1.1993260000 	    0.0120290000
C   	    0.3049780000 	    0.9423260000 	    0.0042890000
N   	   -0.7654290000 	    1.8300890000 	   -0.0026810000
C   	   -1.8226910000 	    1.0714100000 	   -0.0101580000
H   	   -2.5887130000 	   -1.5777950000 	    0.8115940000
H   	    0.3292650000 	   -2.5053010000 	   -0.0328130000
H   	    2.7785590000 	   -2.0273190000 	   -0.0176800000
H   	    3.6178050000 	    0.2896510000 	    0.0109430000
H   	    2.0426810000 	    2.2233250000 	    0.0192740000
H   	   -2.8546190000 	    1.4008040000 	   -0.0296620000
