17
tauto -309.816775051
O   	    2.2950480000 	    0.0000300000 	   -0.3428010000
C   	    1.1536560000 	    0.0000190000 	    0.0656610000
C   	    0.3894830000 	    1.2830200000 	    0.3448470000
C   	   -1.0116140000 	    1.2603210000 	   -0.2846990000
C   	   -1.7829580000 	   -0.0000830000 	    0.1117410000
C   	   -1.0114530000 	   -1.2603450000 	   -0.2848340000
C   	    0.3895340000 	   -1.2829770000 	    0.3449760000
H   	    0.9893350000 	    2.1258310000 	   -0.0097010000
H   	    0.2900080000 	    1.3769410000 	    1.4366090000
H   	   -0.9155200000 	    1.2957140000 	   -1.3785810000
H   	   -1.5627170000 	    2.1603880000 	    0.0106970000
H   	   -2.7721720000 	   -0.0001030000 	   -0.3604880000
H   	   -1.9508030000 	   -0.0001670000 	    1.1987410000
H   	   -0.9151600000 	   -1.2955060000 	   -1.3787080000
H   	   -1.5625100000 	   -2.1605310000 	    0.0102820000
H   	    0.9894660000 	   -2.1258320000 	   -0.0093270000
H   	    0.2898080000 	   -1.3767140000 	    1.4367280000
