11
tauto -430.591750716
O   	    2.0443900000 	    1.0721840000 	   -0.0000320000
N   	    1.4265460000 	    0.0254750000 	   -0.0000140000
C   	   -0.0053570000 	    0.1035780000 	   -0.0000110000
C   	   -0.8568900000 	    1.1802310000 	    0.0000290000
C   	   -2.1276920000 	    0.5754380000 	    0.0000130000
N   	   -2.0500020000 	   -0.7546930000 	   -0.0000070000
N   	   -0.7496080000 	   -1.0219940000 	   -0.0000340000
H   	   -0.4026460000 	   -1.9706580000 	   -0.0000330000
O   	    1.9108120000 	   -1.0978820000 	    0.0000520000
H   	   -0.5897610000 	    2.2259940000 	    0.0000510000
H   	   -3.0981220000 	    1.0532460000 	    0.0000270000
