19
tauto -457.139135335
C   	    1.9110800000 	    1.0835210000 	    0.4108570000
C   	    1.0226890000 	    0.0953020000 	    0.0340940000
C   	   -0.4473020000 	    0.0446980000 	    0.0229520000
C   	   -1.1289140000 	   -1.1527820000 	    0.2612270000
C   	   -2.5187370000 	   -1.1912260000 	    0.2374940000
C   	   -3.2456740000 	   -0.0313340000 	   -0.0122990000
C   	   -2.5747810000 	    1.1675090000 	   -0.2399420000
C   	   -1.1858070000 	    1.2051150000 	   -0.2275220000
N   	    1.7936840000 	   -0.9499720000 	   -0.3634080000
H   	    1.4784900000 	   -1.8163970000 	   -0.7710700000
N   	    3.1091880000 	   -0.7118080000 	   -0.2838530000
C   	    3.1858220000 	    0.5223280000 	    0.1942670000
H   	    1.6685720000 	    2.0557130000 	    0.8170730000
H   	   -0.5700800000 	   -2.0568370000 	    0.4947990000
H   	   -3.0346790000 	   -2.1290980000 	    0.4260550000
H   	   -4.3319950000 	   -0.0607080000 	   -0.0273000000
H   	   -3.1358390000 	    2.0772220000 	   -0.4375680000
H   	   -0.6615950000 	    2.1361900000 	   -0.4283940000
H   	    4.1567650000 	    0.9676020000 	    0.3704670000
