11
tauto -281.479148795
N   	   -2.0563750000 	   -0.0337570000 	   -0.0683430000
C   	   -0.6589340000 	    0.0850010000 	   -0.0113660000
C   	    0.2052710000 	    1.1596180000 	    0.0097030000
C   	    1.4899940000 	    0.5711790000 	    0.0134390000
N   	    1.4385240000 	   -0.7505940000 	    0.0050210000
N   	    0.1194050000 	   -1.0227500000 	   -0.0178690000
H   	   -0.1930880000 	   -1.9767530000 	   -0.1040850000
H   	   -2.4882000000 	    0.8620360000 	   -0.2566200000
H   	   -2.4466130000 	   -0.4062050000 	    0.7908190000
H   	   -0.0536560000 	    2.2090130000 	    0.0342850000
H   	    2.4526920000 	    1.0668340000 	    0.0332740000
