22
tauto -550.58143058
C   	    4.0953610000 	   -0.7482740000 	    0.0063910000
C   	    2.6916320000 	   -0.2289710000 	    0.0019010000
N   	    1.6707300000 	   -1.0827740000 	   -0.0032970000
N   	    0.5920830000 	   -0.2701360000 	   -0.0060560000
C   	   -0.7861910000 	   -0.4444070000 	   -0.0042440000
C   	   -1.5863030000 	   -1.5743220000 	   -0.0029350000
C   	   -2.9648810000 	   -1.3778140000 	    0.0026820000
C   	   -3.5116690000 	   -0.0908450000 	    0.0063990000
C   	   -2.7041530000 	    1.0445490000 	    0.0033850000
C   	   -1.3288070000 	    0.8547920000 	   -0.0020770000
N   	   -0.2705630000 	    1.7629730000 	   -0.0111360000
H   	   -0.3506170000 	    2.7630750000 	    0.0401200000
C   	    0.9105780000 	    1.0516580000 	   -0.0033690000
C   	    2.2869930000 	    1.1365820000 	    0.0019960000
H   	    4.0819350000 	   -1.8408490000 	    0.0055730000
H   	    4.6408620000 	   -0.4069690000 	    0.8928560000
H   	    4.6470850000 	   -0.4057750000 	   -0.8757520000
H   	   -1.1419840000 	   -2.5643170000 	   -0.0052450000
H   	   -3.6262100000 	   -2.2395150000 	    0.0043400000
H   	   -4.5913670000 	    0.0305710000 	    0.0112230000
H   	   -3.1367260000 	    2.0412780000 	    0.0050090000
H   	    2.9159030000 	    2.0143710000 	    0.0045190000
