18
tauto -493.279911806
C   	   -3.3668110000 	   -0.1490550000 	    0.8399510000
C   	   -2.7107140000 	   -0.4147080000 	   -0.5009970000
O   	   -1.3058200000 	   -0.6965370000 	   -0.3466800000
C   	   -0.5064340000 	    0.3659780000 	   -0.2201720000
C   	    0.9046470000 	   -0.0188270000 	   -0.0655170000
C   	    1.5819390000 	   -1.2202240000 	   -0.0225970000
C   	    2.9276380000 	   -0.8487250000 	    0.1488330000
N   	    3.0722950000 	    0.4743020000 	    0.2072220000
N   	    1.8400190000 	    0.9504660000 	    0.0757450000
H   	    1.6620030000 	    1.9444290000 	    0.0840520000
O   	   -0.8735750000 	    1.5225410000 	   -0.2326240000
H   	   -4.4447930000 	   -0.0128000000 	    0.7047590000
H   	   -2.9592210000 	    0.7591450000 	    1.2917620000
H   	   -3.2074220000 	   -0.9898840000 	    1.5217660000
H   	   -2.8251620000 	    0.4371060000 	   -1.1762500000
H   	   -3.1131960000 	   -1.3117090000 	   -0.9764470000
H   	    1.1560330000 	   -2.2094270000 	   -0.1049860000
H   	    3.7991290000 	   -1.4848990000 	    0.2320030000
