12
tauto -265.451050458
C   	   -2.1287270000 	    0.0336700000 	    0.0000670000
C   	   -0.6352310000 	    0.0957330000 	   -0.0000200000
C   	    0.2451930000 	    1.1556870000 	   -0.0001650000
C   	    1.5264640000 	    0.5623310000 	    0.0001940000
N   	    1.4585730000 	   -0.7600230000 	   -0.0001090000
N   	    0.1409450000 	   -1.0167470000 	    0.0000110000
H   	   -0.1659620000 	   -1.9768220000 	   -0.0001010000
H   	   -2.5430540000 	    1.0446300000 	   -0.0002280000
H   	   -2.5111240000 	   -0.4847190000 	    0.8865310000
H   	   -2.5112020000 	   -0.4852580000 	   -0.8860510000
H   	   -0.0059040000 	    2.2074370000 	   -0.0002670000
H   	    2.4944330000 	    1.0476010000 	    0.0003530000
