11
tauto -281.496928679
N   	   -2.0756060000 	    0.0164160000 	   -0.0863450000
C   	   -0.6772130000 	    0.0404460000 	   -0.0188120000
C   	    0.1701990000 	    1.1182420000 	   -0.0150530000
N   	    1.4400730000 	    0.5656880000 	    0.0110420000
H   	    2.3092150000 	    1.0738080000 	    0.0202020000
C   	    1.2937950000 	   -0.7778180000 	    0.0123050000
N   	    0.0298490000 	   -1.1341790000 	    0.0002260000
H   	   -2.5150370000 	    0.6924000000 	    0.5247640000
H   	   -2.4128850000 	   -0.9141520000 	    0.1274670000
H   	    0.0008780000 	    2.1837350000 	   -0.0447990000
H   	    2.1369340000 	   -1.4564850000 	    0.0272670000
