17
tauto -584.225788844
O   	    3.3616040000 	    0.6777090000 	   -0.0010230000
N   	    2.5702920000 	   -0.2488830000 	   -0.0000190000
C   	    1.1367840000 	    0.0739830000 	    0.0000240000
C   	    0.7571640000 	    1.4254940000 	    0.0002520000
C   	   -0.5823900000 	    1.7623120000 	    0.0003530000
C   	    0.2392280000 	   -0.9786210000 	   -0.0001480000
C   	   -1.1017670000 	   -0.6139180000 	   -0.0001280000
C   	   -1.5271810000 	    0.7293120000 	    0.0001460000
N   	   -2.9093390000 	    0.7995290000 	    0.0001370000
C   	   -3.2969100000 	   -0.4440190000 	   -0.0001380000
N   	   -2.2702070000 	   -1.3481580000 	   -0.0003180000
H   	   -2.3557220000 	   -2.3520400000 	   -0.0004930000
O   	    2.8862720000 	   -1.4276350000 	    0.0009320000
H   	    1.5326840000 	    2.1820840000 	    0.0003110000
H   	   -0.9060870000 	    2.7981940000 	    0.0006030000
H   	    0.5918460000 	   -2.0035100000 	   -0.0002150000
H   	   -4.3305170000 	   -0.7699900000 	   -0.0002360000
