21
tauto -566.622307316
C   	   -2.3682490000 	    2.1089560000 	    0.0001470000
C   	   -2.0794460000 	    0.6500280000 	    0.0001580000
N   	   -2.9544710000 	   -0.3198060000 	    0.0002680000
N   	   -2.3030250000 	   -1.5450840000 	    0.0002370000
C   	   -1.0375850000 	   -1.2443770000 	    0.0000940000
N   	   -0.8125420000 	    0.1036850000 	    0.0000580000
C   	    0.5640820000 	    0.3540720000 	   -0.0000530000
C   	    1.3024460000 	    1.5245200000 	   -0.0000990000
C   	    2.6912400000 	    1.4068700000 	   -0.0002070000
C   	    3.3058190000 	    0.1528970000 	   -0.0002600000
C   	    2.5625610000 	   -1.0258280000 	   -0.0002160000
C   	    1.1789300000 	   -0.9150880000 	   -0.0001130000
N   	    0.1807790000 	   -1.8856670000 	   -0.0000510000
H   	    0.3067070000 	   -2.8830140000 	    0.0001840000
H   	   -3.4513690000 	    2.2444060000 	    0.0003040000
H   	   -1.9536600000 	    2.5999130000 	   -0.8877790000
H   	   -1.9533970000 	    2.5999780000 	    0.8879140000
H   	    0.8156750000 	    2.4954450000 	   -0.0000600000
H   	    3.3019620000 	    2.3048010000 	   -0.0002500000
H   	    4.3904610000 	    0.0909150000 	   -0.0003400000
H   	    3.0496420000 	   -1.9966390000 	   -0.0002590000
