11
tauto -389.694599158
C   	    1.9701540000 	   -0.1188150000 	   -0.0280200000
N   	    1.2529710000 	   -1.1892870000 	    0.0075920000
C   	   -0.0495840000 	   -0.7150830000 	    0.0464340000
N   	   -1.2740680000 	   -1.1764600000 	   -0.0025580000
N   	   -2.0820960000 	   -0.0722590000 	   -0.0225350000
C   	   -1.3541820000 	    1.0215550000 	   -0.0232460000
N   	   -0.0448220000 	    0.6506220000 	    0.0653640000
N   	    1.2522100000 	    1.0797650000 	   -0.0981930000
H   	    1.5387880000 	    1.8788100000 	    0.4549070000
H   	    3.0534400000 	   -0.0885310000 	   -0.0433800000
H   	   -1.7199220000 	    2.0371100000 	   -0.0302220000
