16
tauto -325.847697288
O   	    2.3318830000 	    0.0469100000 	    0.0583290000
C   	    0.9839400000 	   -0.0596290000 	    0.0037890000
N   	    0.4549240000 	   -1.2067400000 	   -0.0822390000
C   	   -0.9971610000 	   -1.3161840000 	   -0.1294080000
C   	   -1.7530980000 	   -0.0786470000 	    0.3556440000
C   	   -1.1693720000 	    1.1739370000 	   -0.2931230000
C   	    0.3102950000 	    1.2860820000 	    0.0731640000
H   	    2.6610270000 	   -0.8665900000 	    0.0296510000
H   	   -1.2836150000 	   -2.1926520000 	    0.4633930000
H   	   -1.2829700000 	   -1.5432860000 	   -1.1665710000
H   	   -1.6623630000 	    0.0020770000 	    1.4477240000
H   	   -2.8199200000 	   -0.1832000000 	    0.1275220000
H   	   -1.7075820000 	    2.0750830000 	    0.0194390000
H   	   -1.2745940000 	    1.0996970000 	   -1.3837050000
H   	    0.4341850000 	    1.6696460000 	    1.0944080000
H   	    0.8486820000 	    1.9777560000 	   -0.5832180000
