21
tauto -462.208428191
O   	   -1.4220170000 	    2.2694670000 	   -0.0006750000
C   	   -1.2299630000 	    1.0701920000 	   -0.0584580000
C   	   -2.3804560000 	    0.0894990000 	   -0.1907940000
C   	   -2.0651180000 	   -1.2669330000 	    0.4375600000
C   	   -0.7939430000 	   -1.8500040000 	   -0.1774090000
C   	    0.1522320000 	    0.4969150000 	   -0.0280280000
C   	    0.3692020000 	   -0.8877600000 	   -0.0834760000
C   	    1.6833370000 	   -1.3581370000 	   -0.0564770000
C   	    2.7548480000 	   -0.4769340000 	    0.0200870000
C   	    2.5324090000 	    0.8989280000 	    0.0764510000
C   	    1.2329250000 	    1.3796440000 	    0.0541420000
H   	   -2.5703420000 	   -0.0389530000 	   -1.2671960000
H   	   -3.2711670000 	    0.5585470000 	    0.2369530000
H   	   -2.9060150000 	   -1.9548590000 	    0.2974190000
H   	   -1.9253300000 	   -1.1474510000 	    1.5198230000
H   	   -0.9811880000 	   -2.0839150000 	   -1.2360430000
H   	   -0.5278430000 	   -2.7972290000 	    0.3055320000
H   	    1.8649400000 	   -2.4307090000 	   -0.0916200000
H   	    3.7703370000 	   -0.8651220000 	    0.0425280000
H   	    3.3707620000 	    1.5875510000 	    0.1384960000
H   	    1.0191440000 	    2.4439360000 	    0.0979250000
