15
tauto -362.738069641
C   	   -2.8466830000 	   -0.0747360000 	   -0.0000370000
C   	   -1.3419840000 	   -0.0116680000 	   -0.0000010000
C   	   -0.6528460000 	    1.2101580000 	    0.0000090000
C   	    0.7270790000 	    1.2349550000 	    0.0000290000
C   	   -0.5623130000 	   -1.1584830000 	    0.0000130000
N   	    0.7776190000 	   -1.1659710000 	    0.0000170000
C   	    1.3928900000 	    0.0033550000 	    0.0000040000
O   	    2.7427460000 	   -0.0016030000 	   -0.0000790000
H   	   -3.2680340000 	    0.4190310000 	   -0.8830460000
H   	   -3.2679910000 	    0.4178040000 	    0.8836930000
H   	   -3.1966770000 	   -1.1118000000 	   -0.0007030000
H   	   -1.2102880000 	    2.1454040000 	    0.0000340000
H   	    1.2955960000 	    2.1586990000 	    0.0001260000
H   	   -1.0366490000 	   -2.1398820000 	    0.0000780000
H   	    3.0018810000 	   -0.9361250000 	    0.0002310000
