11
tauto -285.306815886
O   	    2.0309610000 	    0.1016160000 	    0.0000080000
C   	    0.6941830000 	   -0.0091600000 	   -0.0000240000
N   	    0.0681900000 	   -1.1266480000 	    0.0000000000
C   	   -1.3427020000 	   -0.7771450000 	    0.0000030000
C   	   -1.4112530000 	    0.7262630000 	   -0.0000020000
C   	   -0.1565260000 	    1.1893470000 	   -0.0000010000
H   	    2.3772720000 	   -0.8044800000 	    0.0000100000
H   	   -1.8381060000 	   -1.2066660000 	    0.8806730000
H   	   -1.8381310000 	   -1.2067060000 	   -0.8806300000
H   	   -2.3292240000 	    1.3040200000 	   -0.0000010000
H   	    0.2009620000 	    2.2116040000 	    0.0000220000
