13
tauto -398.624164394
O   	   -1.7756840000 	    1.2782550000 	   -0.0000960000
C   	   -0.5443180000 	    0.7049640000 	    0.0000090000
C   	    0.6516670000 	    1.3926470000 	   -0.0000500000
C   	    1.8581910000 	    0.6796880000 	   -0.0000160000
C   	    1.8037180000 	   -0.6981860000 	    0.0000060000
N   	    0.6462760000 	   -1.3814700000 	    0.0000400000
C   	   -0.4815030000 	   -0.7057300000 	    0.0000540000
O   	   -1.6440230000 	   -1.3866070000 	   -0.0000350000
H   	   -1.6705350000 	    2.2382280000 	    0.0009040000
H   	    0.6511820000 	    2.4817100000 	   -0.0001340000
H   	    2.8105640000 	    1.1998320000 	   -0.0000300000
H   	    2.7099140000 	   -1.2992960000 	    0.0000450000
H   	   -1.3939240000 	   -2.3236630000 	   -0.0000350000
