16
tauto -437.938156192
C   	   -2.7282030000 	   -0.8284540000 	    0.0000120000
O   	   -2.0848220000 	    0.4380030000 	   -0.0000970000
C   	   -0.7395070000 	    0.4407410000 	    0.0000180000
N   	   -0.0922240000 	   -0.7188020000 	   -0.0000030000
C   	    1.2394650000 	   -0.6804240000 	   -0.0000190000
O   	    1.8776870000 	   -1.8684050000 	    0.0000760000
C   	    1.9897390000 	    0.4900350000 	   -0.0000790000
C   	    1.2819440000 	    1.6878800000 	    0.0000150000
C   	   -0.1039010000 	    1.6859020000 	    0.0000720000
H   	   -3.7973660000 	   -0.6114510000 	    0.0001160000
H   	   -2.4593630000 	   -1.4065680000 	    0.8894100000
H   	   -2.4595210000 	   -1.4066650000 	   -0.8893740000
H   	    1.1841660000 	   -2.5453570000 	   -0.0000800000
H   	    3.0723300000 	    0.4442520000 	   -0.0002670000
H   	    1.8201780000 	    2.6324240000 	    0.0000090000
H   	   -0.6949950000 	    2.5941170000 	    0.0002600000
