14
tauto -527.886705093
O   	    2.7180680000 	    1.0348710000 	   -0.0001680000
N   	    2.1220590000 	   -0.0290620000 	    0.0000330000
C   	    0.6645720000 	    0.0166520000 	    0.0000310000
C   	    0.0055750000 	    1.2469920000 	    0.0001960000
C   	   -1.3708720000 	    1.2445070000 	    0.0001900000
C   	   -0.0602140000 	   -1.1629050000 	   -0.0001550000
N   	   -1.3930180000 	   -1.1729190000 	   -0.0001870000
C   	   -2.0186820000 	   -0.0013280000 	   -0.0000080000
O   	   -3.3567940000 	   -0.0205000000 	   -0.0000350000
O   	    2.6533810000 	   -1.1264340000 	    0.0001260000
H   	    0.5817600000 	    2.1658010000 	    0.0003170000
H   	   -1.9551720000 	    2.1575000000 	    0.0003260000
H   	    0.4501250000 	   -2.1212850000 	   -0.0002820000
H   	   -3.6195100000 	   -0.9551400000 	   -0.0001820000
