14
tauto -378.767677379
N   	   -2.4192630000 	   -0.9152210000 	   -0.0646990000
C   	   -1.2006990000 	   -0.2687740000 	   -0.0106840000
C   	   -0.0025440000 	   -0.9837100000 	   -0.0056620000
C   	    1.1987540000 	   -0.2700160000 	    0.0016330000
O   	    2.3926290000 	   -0.9097550000 	    0.0042750000
N   	    1.2878680000 	    1.0513040000 	    0.0087640000
C   	    0.1296680000 	    1.7175650000 	    0.0038480000
C   	   -1.1232650000 	    1.1335610000 	   -0.0055420000
H   	   -2.4349440000 	   -1.8746830000 	    0.2474410000
H   	   -3.2197160000 	   -0.3834540000 	    0.2428250000
H   	   -0.0083000000 	   -2.0722630000 	   -0.0159030000
H   	    2.2368350000 	   -1.8623040000 	   -0.0132240000
H   	    0.2159610000 	    2.8035150000 	    0.0097290000
H   	   -2.0225850000 	    1.7428920000 	   -0.0150810000
