11
tauto -285.304235809
O   	   -2.0098950000 	    0.0983040000 	   -0.0000240000
C   	   -0.6793150000 	   -0.0301090000 	   -0.0000560000
N   	   -0.0646890000 	   -1.1553080000 	    0.0000140000
C   	    1.3159710000 	   -0.8127190000 	    0.0000380000
C   	    1.5458170000 	    0.5072800000 	   -0.0000950000
C   	    0.2038980000 	    1.1845340000 	    0.0000590000
H   	   -2.3703800000 	   -0.8031010000 	    0.0000060000
H   	    2.0447340000 	   -1.6156650000 	    0.0000870000
H   	    2.5034700000 	    1.0117030000 	   -0.0001540000
H   	    0.0178950000 	    1.8071510000 	   -0.8831980000
H   	    0.0180390000 	    1.8067090000 	    0.8836790000
