15
tauto -362.732514404
C   	    2.4657900000 	   -0.9165310000 	    0.0000090000
C   	    1.1449280000 	   -0.1951840000 	   -0.0000180000
C   	    1.0701850000 	    1.1953320000 	    0.0000050000
C   	   -0.1881510000 	    1.7915840000 	    0.0000040000
C   	   -1.3193710000 	    0.9946350000 	   -0.0000050000
C   	   -1.1301400000 	   -0.3940400000 	   -0.0000030000
O   	   -2.1767940000 	   -1.2539680000 	   -0.0000050000
N   	    0.0558890000 	   -0.9756610000 	   -0.0000170000
H   	    3.3080680000 	   -0.2189200000 	   -0.0004800000
H   	    2.5402080000 	   -1.5622990000 	   -0.8806050000
H   	    2.5406180000 	   -1.5615350000 	    0.8811530000
H   	    1.9757060000 	    1.7942700000 	    0.0000140000
H   	   -0.2858100000 	    2.8744650000 	    0.0000030000
H   	   -2.3171330000 	    1.4268230000 	   -0.0000300000
H   	   -2.9979820000 	   -0.7462020000 	    0.0001450000
