12
tauto -323.429946633
O   	   -2.2473590000 	    0.0865710000 	    0.0002090000
C   	   -0.9003960000 	    0.0319060000 	   -0.0003990000
N   	   -0.3418790000 	   -1.1686870000 	   -0.0001230000
C   	    0.9960690000 	   -1.2245020000 	    0.0001730000
C   	    1.8111750000 	   -0.1051570000 	    0.0000320000
C   	    1.1963650000 	    1.1501470000 	    0.0000350000
C   	   -0.1829820000 	    1.2342040000 	   -0.0000500000
H   	   -2.5483040000 	   -0.8355400000 	    0.0001590000
H   	    1.4259430000 	   -2.2246290000 	    0.0000520000
H   	    2.8912530000 	   -0.2086520000 	   -0.0000410000
H   	    1.7953770000 	    2.0574460000 	    0.0001070000
H   	   -0.7136330000 	    2.1800260000 	    0.0001710000
