21
tauto -499.289239209
C   	   -3.5053090000 	    0.9003540000 	    0.0000050000
C   	   -2.5722150000 	   -0.2937650000 	    0.0000240000
C   	   -1.0988880000 	   -0.0466960000 	    0.0000020000
C   	   -0.5385780000 	    1.2376310000 	    0.0000090000
C   	    0.8329500000 	    1.4116920000 	   -0.0000030000
C   	   -0.2428540000 	   -1.1469930000 	   -0.0000430000
C   	    1.1373890000 	   -0.9908730000 	   -0.0000620000
C   	    1.6804910000 	    0.2969950000 	   -0.0000240000
O   	    3.0065880000 	    0.5711450000 	   -0.0000700000
C   	    3.9085040000 	   -0.5170110000 	    0.0000950000
O   	   -3.0147250000 	   -1.4274300000 	    0.0000350000
H   	   -3.3384460000 	    1.5256800000 	   -0.8841390000
H   	   -3.3385970000 	    1.5256380000 	    0.8842020000
H   	   -4.5345910000 	    0.5385720000 	   -0.0000940000
H   	   -1.1790270000 	    2.1161740000 	    0.0000570000
H   	    1.2812520000 	    2.4005480000 	    0.0000120000
H   	   -0.6857430000 	   -2.1389170000 	   -0.0000600000
H   	    1.7744270000 	   -1.8688970000 	   -0.0001380000
H   	    4.9071590000 	   -0.0782300000 	    0.0002570000
H   	    3.7850100000 	   -1.1391670000 	   -0.8951280000
H   	    3.7847100000 	   -1.1391330000 	    0.8952970000
