23
tauto -754.2088192
C   	   -0.2618890000 	    2.7887920000 	   -0.0000160000
N   	   -0.4658990000 	    1.3411810000 	   -0.0001000000
C   	    0.5888760000 	    0.4534120000 	   -0.0000300000
C   	    0.3428510000 	   -0.9271800000 	   -0.0000080000
C   	   -1.0393130000 	   -1.4524850000 	   -0.0000270000
N   	   -2.0224400000 	   -0.4550320000 	   -0.0000180000
C   	   -3.4272890000 	   -0.8551150000 	    0.0000160000
O   	   -1.3184400000 	   -2.6308890000 	   -0.0000630000
N   	    1.3521130000 	   -1.8008070000 	    0.0000580000
C   	    2.5776650000 	   -1.3242830000 	    0.0000680000
C   	    2.8105870000 	    0.0679710000 	    0.0000060000
O   	    4.0475750000 	    0.5861660000 	   -0.0000040000
N   	    1.8295230000 	    0.9461740000 	   -0.0000270000
C   	   -1.7905440000 	    0.9163620000 	   -0.0000400000
O   	   -2.7046530000 	    1.7162660000 	    0.0001330000
H   	    0.8085160000 	    2.9808350000 	   -0.0002640000
H   	   -0.7275920000 	    3.2242280000 	    0.8864410000
H   	   -0.7280330000 	    3.2243590000 	   -0.8861720000
H   	   -3.4543350000 	   -1.9430220000 	   -0.0012530000
H   	   -3.9262190000 	   -0.4574590000 	   -0.8861720000
H   	   -3.9256840000 	   -0.4596580000 	    0.8875090000
H   	    3.4013020000 	   -2.0372430000 	    0.0001320000
H   	    4.6974390000 	   -0.1298550000 	    0.0000450000
