11
tauto -339.42963831
O   	    2.2210560000 	    0.1005450000 	   -0.0000670000
C   	    0.8795470000 	    0.0472290000 	    0.0001000000
N   	    0.3288620000 	   -1.1555740000 	    0.0000230000
N   	   -0.9935360000 	   -1.2793360000 	   -0.0000440000
C   	   -1.7457130000 	   -0.1913280000 	   -0.0000090000
C   	   -1.2164230000 	    1.1088110000 	   -0.0000090000
C   	    0.1481500000 	    1.2444090000 	    0.0000190000
H   	    2.5236620000 	   -0.8227510000 	    0.0001080000
H   	   -2.8177550000 	   -0.3665650000 	    0.0000450000
H   	   -1.8740920000 	    1.9732210000 	   -0.0000150000
H   	    0.6590910000 	    2.2013840000 	   -0.0000620000
