18
tauto -477.035140959
O   	    1.7171670000 	   -2.0244350000 	   -0.0003590000
C   	    1.3661870000 	   -0.7233610000 	    0.0006700000
N   	    2.3151120000 	    0.1682590000 	    0.0002430000
C   	    1.9449640000 	    1.4816970000 	   -0.0001530000
C   	    0.6503880000 	    1.9069570000 	   -0.0000060000
C   	   -0.3943240000 	    0.9366670000 	    0.0000280000
C   	   -1.7714410000 	    1.2726190000 	   -0.0000980000
C   	   -2.7258540000 	    0.2872880000 	   -0.0001570000
C   	   -2.3564460000 	   -1.0779520000 	   -0.0001250000
C   	   -1.0313370000 	   -1.4328380000 	    0.0000140000
C   	   -0.0352030000 	   -0.4288280000 	    0.0002180000
H   	    2.6875700000 	   -2.0323780000 	   -0.0005410000
H   	    2.7683290000 	    2.1921340000 	   -0.0001160000
H   	    0.4119200000 	    2.9666810000 	   -0.0000410000
H   	   -2.0571960000 	    2.3220360000 	   -0.0002050000
H   	   -3.7796870000 	    0.5546300000 	   -0.0002690000
H   	   -3.1273260000 	   -1.8435590000 	   -0.0001580000
H   	   -0.7283300000 	   -2.4753740000 	    0.0001450000
