18
tauto -477.03618608
O   	   -3.2857580000 	   -0.6904920000 	    0.0000670000
C   	   -2.0231550000 	   -0.2205300000 	   -0.0003810000
N   	   -1.0439870000 	   -1.0785170000 	   -0.0000640000
C   	    0.2334240000 	   -0.5873060000 	    0.0001780000
C   	    1.3140690000 	   -1.5032500000 	    0.0001500000
C   	    2.6082960000 	   -1.0483590000 	   -0.0000100000
C   	    2.8865560000 	    0.3384330000 	   -0.0001700000
C   	    1.8559960000 	    1.2431700000 	   -0.0000700000
C   	    0.5108850000 	    0.8005180000 	    0.0001450000
C   	   -0.6017420000 	    1.6915640000 	    0.0001160000
C   	   -1.8688840000 	    1.1966940000 	   -0.0000150000
H   	   -3.2074760000 	   -1.6577250000 	   -0.0002560000
H   	    1.0794950000 	   -2.5637550000 	    0.0003770000
H   	    3.4313100000 	   -1.7586050000 	    0.0000290000
H   	    3.9174630000 	    0.6817970000 	   -0.0004060000
H   	    2.0558040000 	    2.3130900000 	   -0.0000530000
H   	   -0.4244870000 	    2.7652430000 	    0.0003740000
H   	   -2.7508110000 	    1.8279060000 	    0.0001940000
