24
tauto -630.645460837
O   	   -1.4781190000 	    2.8042790000 	   -0.0000180000
C   	   -0.6831860000 	    1.7164370000 	   -0.0000040000
N   	    0.5921820000 	    1.8853080000 	    0.0000140000
C   	    1.4012860000 	    0.7599360000 	    0.0000110000
C   	    2.7940390000 	    0.9645460000 	    0.0000200000
C   	    3.6606290000 	   -0.1057780000 	    0.0000080000
C   	    3.1563060000 	   -1.4161880000 	   -0.0000160000
C   	    1.7947450000 	   -1.6313920000 	   -0.0000220000
C   	    0.8876530000 	   -0.5536850000 	   -0.0000050000
C   	   -0.5614200000 	   -0.7196280000 	   -0.0000030000
C   	   -1.2093900000 	   -1.9712680000 	    0.0000100000
C   	   -2.5856410000 	   -2.0527530000 	    0.0000140000
C   	   -3.3743070000 	   -0.8904550000 	    0.0000050000
C   	   -2.7663940000 	    0.3451660000 	   -0.0000040000
C   	   -1.3629850000 	    0.4362260000 	   -0.0000080000
H   	   -0.8765460000 	    3.5659220000 	   -0.0000130000
H   	    3.1524170000 	    1.9899130000 	    0.0000350000
H   	    4.7344490000 	    0.0628290000 	    0.0000150000
H   	    3.8389630000 	   -2.2616750000 	   -0.0000310000
H   	    1.4216500000 	   -2.6517180000 	   -0.0000450000
H   	   -0.6248380000 	   -2.8861550000 	    0.0000220000
H   	   -3.0651690000 	   -3.0283320000 	    0.0000250000
H   	   -4.4579280000 	   -0.9687400000 	    0.0000080000
H   	   -3.3513200000 	    1.2595830000 	   -0.0000070000
