17
tauto -493.037494411
O   	    1.7891360000 	   -1.9635540000 	   -0.0000070000
C   	    1.3788830000 	   -0.6837960000 	    0.0000500000
N   	    2.2917810000 	    0.2433600000 	    0.0000560000
N   	    1.9278910000 	    1.5541920000 	   -0.0000330000
C   	    0.6651470000 	    1.8657960000 	   -0.0000430000
C   	   -0.4003580000 	    0.9099430000 	   -0.0000160000
C   	   -1.7696660000 	    1.2547010000 	    0.0000280000
C   	   -2.7200200000 	    0.2620320000 	    0.0000320000
C   	   -2.3413670000 	   -1.0993310000 	   -0.0000170000
C   	   -1.0139000000 	   -1.4559280000 	   -0.0000380000
C   	   -0.0324920000 	   -0.4432040000 	   -0.0000160000
H   	    2.7603280000 	   -1.9273610000 	    0.0000130000
H   	    0.4400460000 	    2.9312770000 	   -0.0000560000
H   	   -2.0568590000 	    2.3035300000 	    0.0000540000
H   	   -3.7755390000 	    0.5210070000 	    0.0000830000
H   	   -3.1100180000 	   -1.8672470000 	   -0.0000340000
H   	   -0.7061120000 	   -2.4969180000 	   -0.0000460000
