11
tauto -376.581690171
O   	    1.8945680000 	   -0.7630490000 	    0.0001390000
C   	    0.5866200000 	   -0.5328550000 	   -0.0002330000
N   	   -0.3278850000 	   -1.4170410000 	   -0.0002960000
C   	   -1.5962530000 	   -0.7110840000 	    0.0002210000
N   	   -1.2605700000 	    0.7016770000 	   -0.0000030000
C   	    0.0868110000 	    0.8977390000 	   -0.0000600000
O   	    0.7192030000 	    1.9286640000 	    0.0000630000
H   	    2.0163280000 	   -1.7257910000 	    0.0001870000
H   	   -2.1731580000 	   -0.9876510000 	    0.8905000000
H   	   -2.1744250000 	   -0.9876350000 	   -0.8891770000
H   	   -1.9227880000 	    1.4609130000 	   -0.0006020000
