17
tauto -675.613884374
O   	   -3.6997680000 	   -0.8547640000 	    0.0000320000
C   	   -2.4646310000 	   -0.3488230000 	    0.0000240000
N   	   -1.4404200000 	   -1.1807620000 	   -0.0000100000
C   	   -0.2316390000 	   -0.6092460000 	   -0.0000480000
N   	    0.8601310000 	   -1.4439050000 	   -0.0000560000
C   	    2.1766150000 	   -1.0107310000 	   -0.0000190000
N   	    2.3098180000 	    0.3688600000 	   -0.0000310000
C   	    1.3086770000 	    1.3480440000 	   -0.0000880000
O   	    1.5850750000 	    2.5236660000 	    0.0000740000
O   	    3.1168470000 	   -1.7719720000 	    0.0000880000
C   	   -0.0581730000 	    0.7766940000 	   -0.0000450000
N   	   -1.1156620000 	    1.5985270000 	   -0.0000020000
C   	   -2.3120850000 	    1.0571760000 	    0.0000160000
H   	   -3.6173070000 	   -1.8217240000 	    0.0000330000
H   	    0.7119310000 	   -2.4437620000 	    0.0000030000
H   	    3.2633900000 	    0.7087730000 	    0.0000490000
H   	   -3.1848960000 	    1.7035450000 	    0.0000230000
