19
tauto -552.153078522
O   	   -2.8380580000 	   -1.3599570000 	    0.0000920000
N   	   -1.7350790000 	   -0.7420050000 	   -0.0001890000
C   	   -0.5550950000 	   -1.3722600000 	   -0.0000970000
C   	    0.6804970000 	   -0.6894300000 	   -0.0000270000
C   	    1.9168320000 	   -1.3860860000 	    0.0000800000
C   	    3.0982650000 	   -0.6922740000 	    0.0001130000
C   	    3.0971160000 	    0.7233770000 	    0.0000380000
C   	    1.9140000000 	    1.4169820000 	   -0.0000650000
C   	    0.6793950000 	    0.7238430000 	   -0.0000830000
C   	   -0.5828870000 	    1.3762980000 	   -0.0001290000
C   	   -1.7425730000 	    0.6636820000 	   -0.0000130000
O   	   -2.9861620000 	    1.1611220000 	    0.0000450000
H   	   -0.6430490000 	   -2.4520720000 	   -0.0000650000
H   	    1.9102950000 	   -2.4736040000 	    0.0001240000
H   	    4.0436590000 	   -1.2277820000 	    0.0002060000
H   	    4.0419980000 	    1.2600190000 	    0.0000710000
H   	    1.9090660000 	    2.5048220000 	   -0.0001060000
H   	   -0.6303130000 	    2.4632130000 	   -0.0002300000
H   	   -2.9256460000 	    2.1253190000 	    0.0013360000
