16
tauto -417.09818789
C   	    2.8656770000 	   -0.8216500000 	   -0.0004270000
N   	    1.4211680000 	   -0.7655410000 	    0.0009830000
C   	    0.7375270000 	    0.3842470000 	    0.0004140000
C   	   -0.7718520000 	    0.2319980000 	    0.0007650000
O   	   -1.3989640000 	    1.4147090000 	    0.0008940000
N   	   -1.3169040000 	   -0.9081530000 	   -0.0000860000
C   	   -2.7701940000 	   -0.9443300000 	   -0.0013850000
O   	    1.2088050000 	    1.5198450000 	   -0.0009670000
H   	    3.2381300000 	   -1.3345710000 	    0.8921360000
H   	    3.2378520000 	    0.2042920000 	   -0.0039350000
H   	    3.2359170000 	   -1.3398530000 	   -0.8908510000
H   	    0.8565020000 	   -1.6058480000 	    0.0016230000
H   	   -0.6766200000 	    2.0786300000 	   -0.0019090000
H   	   -3.1054710000 	   -1.9823950000 	   -0.0597950000
H   	   -3.1846540000 	   -0.3885330000 	   -0.8515640000
H   	   -3.1771820000 	   -0.4938830000 	    0.9124040000
