19
tauto -552.177238424
O   	   -3.1898130000 	   -0.1060650000 	   -0.0002180000
N   	   -1.9381450000 	    0.2590760000 	    0.0000830000
C   	   -1.5605540000 	    1.5809310000 	    0.0000350000
C   	   -0.2480370000 	    1.9305930000 	    0.0000430000
C   	    0.7633550000 	    0.9268770000 	    0.0000040000
C   	    2.1486740000 	    1.2241390000 	    0.0000120000
C   	    3.0762200000 	    0.2141990000 	    0.0000040000
C   	    2.6674990000 	   -1.1412160000 	   -0.0000480000
C   	    1.3357120000 	   -1.4635280000 	   -0.0000670000
C   	    0.3663030000 	   -0.4308560000 	   -0.0000310000
C   	   -1.0200210000 	   -0.7190720000 	    0.0000650000
O   	   -1.5280040000 	   -1.9378180000 	    0.0001060000
H   	   -2.3978260000 	    2.2669810000 	   -0.0000850000
H   	    0.0244910000 	    2.9812360000 	   -0.0000060000
H   	    2.4624540000 	    2.2653830000 	    0.0000340000
H   	    4.1366180000 	    0.4520250000 	    0.0000550000
H   	    3.4171810000 	   -1.9274020000 	   -0.0001030000
H   	    1.0017550000 	   -2.4967650000 	   -0.0001620000
H   	   -2.5100240000 	   -1.7363190000 	    0.0004860000
