12
tauto -414.673094474
O   	   -1.8784000000 	   -1.1036600000 	    0.0001750000
C   	   -0.6230660000 	   -0.6462190000 	   -0.0002810000
N   	    0.3745260000 	   -1.4573360000 	   -0.0001030000
C   	    1.6523750000 	   -0.9288580000 	    0.0000390000
C   	    1.8711310000 	    0.3992740000 	    0.0001190000
N   	    0.7867930000 	    1.2544200000 	   -0.0000250000
C   	   -0.5285880000 	    0.8402000000 	   -0.0001720000
O   	   -1.4704510000 	    1.6077870000 	    0.0000390000
H   	   -1.8110200000 	   -2.0721650000 	    0.0004050000
H   	    2.4701990000 	   -1.6399320000 	    0.0000640000
H   	    2.8534450000 	    0.8558010000 	    0.0001590000
H   	    0.9178350000 	    2.2573060000 	    0.0003260000
