26
tauto -760.158426896
C   	    3.9777840000 	   -1.4709500000 	    0.9468830000
C   	    3.7696480000 	   -0.2902910000 	    0.0179460000
O   	    2.4676470000 	    0.2954730000 	    0.2056320000
C   	    1.4568510000 	   -0.2959330000 	   -0.4324140000
C   	    0.1558650000 	    0.4042130000 	   -0.1957840000
C   	   -1.0609070000 	   -0.3168170000 	   -0.0908020000
C   	   -1.1917590000 	   -1.7339180000 	   -0.1850890000
C   	   -2.4195220000 	   -2.3174480000 	   -0.0396440000
C   	   -3.5895020000 	   -1.5468820000 	    0.2048060000
C   	   -3.4969070000 	   -0.1901570000 	    0.2966510000
C   	   -2.2323860000 	    0.4461270000 	    0.1497730000
N   	   -2.2184450000 	    1.7998200000 	    0.2533770000
N   	   -1.1080540000 	    2.4404330000 	    0.1260870000
C   	    0.0571080000 	    1.7801530000 	   -0.0906760000
O   	    1.1158610000 	    2.5891190000 	   -0.2270340000
O   	    1.5719200000 	   -1.2955680000 	   -1.1084230000
H   	    4.9997520000 	   -1.8501830000 	    0.8427600000
H   	    3.2841500000 	   -2.2788120000 	    0.6992500000
H   	    3.8237930000 	   -1.1743710000 	    1.9888150000
H   	    3.8769240000 	   -0.5838920000 	   -1.0293180000
H   	    4.4627290000 	    0.5239600000 	    0.2397500000
H   	   -0.3125370000 	   -2.3320050000 	   -0.3907200000
H   	   -2.5057480000 	   -3.3983410000 	   -0.1168140000
H   	   -4.5485810000 	   -2.0446660000 	    0.3153420000
H   	   -4.3574570000 	    0.4457740000 	    0.4813720000
H   	    0.7613990000 	    3.4899870000 	   -0.1379810000
