11
tauto -430.760744723
O   	   -2.2670580000 	   -0.9949340000 	    0.0001550000
C   	   -1.2168130000 	   -0.3986670000 	   -0.0000270000
N   	   -1.1282850000 	    0.9942600000 	   -0.0005580000
C   	    0.0737820000 	    1.6441530000 	    0.0001650000
N   	    1.2272700000 	    1.0879360000 	    0.0003860000
N   	    0.0304790000 	   -0.9773950000 	    0.0002060000
C   	    1.2746620000 	   -0.3142760000 	   -0.0000310000
O   	    2.2971330000 	   -0.9502690000 	   -0.0003080000
H   	   -2.0036280000 	    1.4982960000 	   -0.0003130000
H   	    0.0071620000 	    2.7314290000 	    0.0002670000
H   	    0.0598390000 	   -1.9889660000 	    0.0003870000
