15
tauto -399.844105939
O   	    2.2866520000 	   -1.0098310000 	    0.0560600000
C   	    1.0900600000 	   -0.3991090000 	    0.0016140000
C   	    1.1305230000 	    1.1142530000 	   -0.0291610000
C   	   -0.2461900000 	    1.7052500000 	   -0.3209270000
C   	   -1.3076000000 	    0.9078900000 	    0.4355360000
N   	    0.0621290000 	   -1.1495170000 	    0.0173190000
C   	   -1.2186250000 	   -0.5587110000 	    0.0411670000
O   	   -2.1986710000 	   -1.2116870000 	   -0.2279810000
H   	    2.9927620000 	   -0.3521440000 	    0.0016810000
H   	    1.8718520000 	    1.4452460000 	   -0.7674950000
H   	    1.4915220000 	    1.4467580000 	    0.9550000000
H   	   -0.4487800000 	    1.6481720000 	   -1.3971980000
H   	   -0.2721480000 	    2.7638180000 	   -0.0446680000
H   	   -2.3197170000 	    1.2551920000 	    0.2188690000
H   	   -1.1432520000 	    0.9942870000 	    1.5185710000
