10
tauto -359.293307401
O   	   -2.2400790000 	   -0.5913750000 	   -0.0000140000
C   	   -0.9722220000 	   -0.1962750000 	    0.0000030000
C   	   -0.5779970000 	    1.2551190000 	    0.0000100000
C   	    0.7498140000 	    1.2502190000 	   -0.0000150000
N   	   -0.0011090000 	   -1.0310470000 	   -0.0000060000
C   	    1.1646310000 	   -0.2185230000 	    0.0000550000
O   	    2.2979270000 	   -0.6176230000 	   -0.0000190000
H   	   -2.8257700000 	    0.1773430000 	    0.0000350000
H   	   -1.2661500000 	    2.0942690000 	    0.0000030000
H   	    1.4515500000 	    2.0744640000 	   -0.0000470000
