12
tauto -414.681841678
O   	    2.2833370000 	   -0.9708050000 	   -0.0001990000
C   	    1.1085470000 	   -0.3196510000 	    0.0000780000
C   	    1.1037020000 	    1.1191860000 	    0.0005930000
C   	   -0.1203810000 	    1.6988750000 	    0.0000660000
N   	   -1.2289160000 	    0.9265880000 	   -0.0008330000
N   	    0.0528230000 	   -1.0694130000 	   -0.0003480000
C   	   -1.1975850000 	   -0.4922960000 	   -0.0000410000
O   	   -2.2493060000 	   -1.0939200000 	    0.0006140000
H   	    3.0083790000 	   -0.3326060000 	   -0.0001760000
H   	    2.0128300000 	    1.7091740000 	    0.0012540000
H   	   -0.2715050000 	    2.7738950000 	    0.0001510000
H   	   -2.1549950000 	    1.3304240000 	   -0.0004670000
