21
tauto -536.376899169
C   	   -4.1262270000 	   -0.2436740000 	   -0.0002860000
C   	   -2.7679870000 	    0.4238010000 	   -0.0001920000
O   	   -1.7825500000 	   -0.6057110000 	    0.0003210000
C   	   -0.4899650000 	   -0.2452430000 	    0.0002890000
C   	    0.4209040000 	   -1.4313410000 	    0.0004550000
C   	   -0.0172130000 	    1.0162880000 	    0.0001190000
C   	    1.4245190000 	    1.2389190000 	    0.0000200000
O   	    1.8546630000 	    2.5202550000 	   -0.0000900000
C   	    2.3425220000 	    0.2441930000 	   -0.0001090000
C   	    1.9248400000 	   -1.1449710000 	   -0.0001070000
O   	    2.7008990000 	   -2.0871440000 	   -0.0004100000
H   	   -4.9162120000 	    0.5134800000 	   -0.0013680000
H   	   -4.2454310000 	   -0.8704950000 	    0.8878270000
H   	   -4.2444260000 	   -0.8720130000 	   -0.8874620000
H   	   -2.6318360000 	    1.0533870000 	    0.8896360000
H   	   -2.6314870000 	    1.0528460000 	   -0.8903490000
H   	    0.1953590000 	   -2.0561590000 	   -0.8720350000
H   	    0.1959570000 	   -2.0554150000 	    0.8736400000
H   	   -0.6755000000 	    1.8800450000 	   -0.0001180000
H   	    1.0979770000 	    3.1194820000 	    0.0007680000
H   	    3.4031540000 	    0.4678160000 	   -0.0002290000
