17
tauto -588.155914924
O   	    3.1009590000 	   -1.1808570000 	    0.0000010000
C   	    1.8644280000 	   -0.6963590000 	   -0.0000700000
O   	    1.8736280000 	    0.6593380000 	   -0.0007070000
N   	    0.8543960000 	   -1.4659570000 	    0.0004320000
C   	   -0.3912340000 	   -0.8432120000 	    0.0001630000
C   	   -1.5481940000 	   -1.6329870000 	   -0.0000140000
C   	   -2.7938440000 	   -1.0313890000 	   -0.0001730000
C   	   -2.9237660000 	    0.3649940000 	   -0.0001120000
C   	   -1.7908450000 	    1.1552800000 	    0.0000590000
C   	   -0.5269480000 	    0.5525400000 	    0.0001480000
C   	    0.6728300000 	    1.3860490000 	    0.0000700000
O   	    0.7507750000 	    2.5806600000 	    0.0002790000
H   	    3.7214360000 	   -0.4369410000 	    0.0004000000
H   	   -1.4336650000 	   -2.7124700000 	   -0.0000080000
H   	   -3.6861780000 	   -1.6523780000 	   -0.0003470000
H   	   -3.9093280000 	    0.8209880000 	   -0.0001730000
H   	   -1.8504960000 	    2.2398800000 	    0.0000930000
