12
tauto -505.969132982
O   	    2.5443400000 	   -0.6005460000 	   -0.0000860000
C   	    1.2327280000 	   -0.3564660000 	   -0.0000280000
N   	    0.8469540000 	    0.9641660000 	   -0.0001730000
C   	   -0.5029870000 	    1.3380260000 	    0.0000720000
N   	   -1.3294210000 	    0.2481030000 	    0.0008310000
O   	   -0.8486590000 	    2.4956780000 	   -0.0002910000
N   	    0.4324930000 	   -1.3539120000 	    0.0001830000
C   	   -0.9343310000 	   -1.1112810000 	    0.0000170000
O   	   -1.7782370000 	   -1.9712670000 	   -0.0004460000
H   	    3.0642760000 	    0.2135510000 	    0.0009850000
H   	    1.4981360000 	    1.7370350000 	   -0.0012890000
H   	   -2.3246150000 	    0.4283160000 	    0.0006240000
