20
tauto -714.911116669
C   	    1.8364400000 	   -2.1582370000 	    0.0002850000
N   	    1.4487970000 	   -0.7524810000 	   -0.0001290000
C   	    0.1392280000 	   -0.3712140000 	    0.0002020000
N   	   -0.8240600000 	   -1.3468390000 	    0.0000940000
C   	   -2.1960510000 	   -1.0838710000 	   -0.0000300000
N   	   -2.5007720000 	    0.2554900000 	    0.0007780000
C   	   -1.6174010000 	    1.3533460000 	    0.0003370000
O   	   -2.0495270000 	    2.4814000000 	   -0.0001540000
O   	   -3.0103060000 	   -1.9786390000 	   -0.0007900000
C   	   -0.2013910000 	    0.9635360000 	    0.0000860000
N   	    0.7524410000 	    1.9441000000 	   -0.0002870000
C   	    1.9929380000 	    1.6011690000 	   -0.0002420000
C   	    2.4795900000 	    0.2169930000 	    0.0000080000
O   	    3.6504260000 	   -0.1093790000 	   -0.0001190000
H   	    1.4655280000 	   -2.6609710000 	    0.8991290000
H   	    2.9254990000 	   -2.1813190000 	    0.0000870000
H   	    1.4654330000 	   -2.6614780000 	   -0.8982580000
H   	   -0.5902410000 	   -2.3286670000 	    0.0006570000
H   	   -3.4872890000 	    0.4824600000 	   -0.0000960000
H   	    2.7613670000 	    2.3707060000 	   -0.0000830000
