15
tauto -562.273492491
O   	   -2.9301910000 	   -1.0501910000 	   -0.0001610000
C   	   -1.6632430000 	   -0.6017920000 	   -0.0000070000
N   	   -1.4903460000 	    0.7687680000 	   -0.0000290000
C   	   -0.2397270000 	    1.4279460000 	   -0.0000790000
O   	   -0.1647580000 	    2.6437060000 	   -0.0000700000
N   	   -0.7145980000 	   -1.4667580000 	    0.0000330000
C   	    0.5409580000 	   -0.9159180000 	   -0.0000040000
C   	    0.7961280000 	    0.4443570000 	    0.0000870000
N   	    2.1651080000 	    0.5667130000 	    0.0002350000
H   	    2.6858810000 	    1.4300430000 	    0.0004090000
C   	    2.6492390000 	   -0.7008500000 	   -0.0001820000
N   	    1.7120440000 	   -1.6224420000 	   -0.0000110000
H   	   -3.5643140000 	   -0.3229450000 	    0.0019240000
H   	   -2.2807230000 	    1.4012690000 	   -0.0007110000
H   	    3.7131540000 	   -0.9029230000 	   -0.0002640000
