23
tauto -754.209665927
C   	    2.3875690000 	    2.0328540000 	   -0.0001300000
N   	    1.8063280000 	    0.6923950000 	   -0.0000180000
C   	    0.4698920000 	    0.4096280000 	    0.0000060000
N   	   -0.4493120000 	    1.4237950000 	    0.0000040000
C   	   -1.8340110000 	    1.2402200000 	    0.0001520000
N   	   -2.2498900000 	   -0.0725870000 	   -0.0002320000
C   	   -3.6847690000 	   -0.3452260000 	   -0.0002470000
C   	   -1.3974920000 	   -1.1987700000 	    0.0000120000
O   	   -1.8734540000 	   -2.3115810000 	    0.0001820000
O   	   -2.5675930000 	    2.2066300000 	    0.0002300000
C   	    0.0407110000 	   -0.8987260000 	    0.0000080000
N   	    0.9182590000 	   -1.9478340000 	    0.0000300000
C   	    2.1806750000 	   -1.6967310000 	    0.0000240000
C   	    2.7577220000 	   -0.3508490000 	   -0.0000030000
O   	    3.9460300000 	   -0.0899650000 	    0.0000040000
H   	    1.6209510000 	    2.8047930000 	   -0.0002990000
H   	    3.0178210000 	    2.1485230000 	   -0.8838860000
H   	    3.0177040000 	    2.1487440000 	    0.8836790000
H   	   -0.1878850000 	    2.3969900000 	    0.0004050000
H   	   -4.2074870000 	    0.6091860000 	   -0.0020930000
H   	   -3.9467960000 	   -0.9256450000 	    0.8867240000
H   	   -3.9459780000 	   -0.9288080000 	   -0.8853570000
H   	    2.8923180000 	   -2.5192350000 	    0.0000740000
