12
tauto -269.272346524
O   	    0.0008230000 	    2.0586960000 	    0.0000000000
C   	    0.0000330000 	    0.8524160000 	    0.0000000000
C   	   -0.0002230000 	   -0.0412860000 	    1.2436100000
C   	   -0.0002230000 	   -1.4303460000 	    0.6666870000
C   	   -0.0002230000 	   -1.4303460000 	   -0.6666870000
C   	   -0.0002230000 	   -0.0412860000 	   -1.2436100000
H   	   -0.8799520000 	    0.1804380000 	    1.8610500000
H   	    0.8796810000 	    0.1806170000 	    1.8607970000
H   	   -0.0004460000 	   -2.3232980000 	    1.2847510000
H   	   -0.0004460000 	   -2.3232980000 	   -1.2847510000
H   	   -0.8799520000 	    0.1804380000 	   -1.8610500000
H   	    0.8796810000 	    0.1806170000 	   -1.8607970000
