26
tauto -631.813873423
O   	   -0.7043040000 	    2.5449030000 	    0.0312560000
C   	   -0.5909510000 	    1.4214010000 	    0.4833600000
C   	    0.6034940000 	    1.0596960000 	    1.3531050000
C   	    1.6787810000 	    0.3454070000 	    0.5539830000
C   	    2.1729330000 	    0.9176900000 	   -0.6206800000
C   	    3.1696550000 	    0.2796340000 	   -1.3504070000
C   	    3.6852870000 	   -0.9391230000 	   -0.9162340000
C   	    3.1985150000 	   -1.5151750000 	    0.2521850000
C   	    2.2000740000 	   -0.8752850000 	    0.9813900000
C   	   -1.6159190000 	    0.3760680000 	    0.1653570000
C   	   -1.4954730000 	   -0.9624710000 	    0.5420270000
N   	   -2.4057320000 	   -1.8973610000 	    0.2683100000
C   	   -3.4895540000 	   -1.5111740000 	   -0.4059280000
C   	   -3.7117500000 	   -0.2051910000 	   -0.8380290000
C   	   -2.7547380000 	    0.7533170000 	   -0.5484700000
H   	    0.2913000000 	    0.4414050000 	    2.2017230000
H   	    0.9920390000 	    2.0040120000 	    1.7469970000
H   	    1.7698250000 	    1.8699580000 	   -0.9599480000
H   	    3.5461420000 	    0.7368140000 	   -2.2619640000
H   	    4.4643630000 	   -1.4371420000 	   -1.4875030000
H   	    3.5956860000 	   -2.4655170000 	    0.5995600000
H   	    1.8267600000 	   -1.3288760000 	    1.8983560000
H   	   -0.6156220000 	   -1.3119870000 	    1.0793840000
H   	   -4.2217460000 	   -2.2901230000 	   -0.6136310000
H   	   -4.6152040000 	    0.0448040000 	   -1.3861220000
H   	   -2.8611220000 	    1.7901890000 	   -0.8550210000
