22
tauto -587.700647815
C   	    0.9520240000 	    2.3605040000 	    0.5187970000
N   	    1.3115490000 	    1.0033270000 	    0.1685590000
C   	    0.5515550000 	   -0.0904070000 	   -0.0441840000
C   	   -0.9218250000 	   -0.1311260000 	   -0.0437240000
C   	   -1.5471910000 	   -1.2851640000 	    0.4374350000
C   	   -2.9326200000 	   -1.3764290000 	    0.4484520000
C   	   -3.7077240000 	   -0.3204390000 	   -0.0261610000
C   	   -3.0908010000 	    0.8223100000 	   -0.5243140000
C   	   -1.7026220000 	    0.9170800000 	   -0.5374970000
N   	    1.3244230000 	   -1.1521640000 	   -0.2359500000
N   	    2.6276240000 	    0.6648750000 	    0.1065690000
C   	    2.5609440000 	   -0.6291810000 	   -0.1355510000
O   	    3.6511320000 	   -1.3960210000 	   -0.2796620000
H   	   -0.0275260000 	    2.3647320000 	    0.9999360000
H   	    0.9305550000 	    3.0047240000 	   -0.3661410000
H   	    1.7042750000 	    2.7344780000 	    1.2147240000
H   	   -0.9280140000 	   -2.1039900000 	    0.7921530000
H   	   -3.4104400000 	   -2.2754410000 	    0.8285330000
H   	   -4.7921510000 	   -0.3934510000 	   -0.0166350000
H   	   -3.6900760000 	    1.6403840000 	   -0.9151680000
H   	   -1.2296730000 	    1.7984580000 	   -0.9630880000
H   	    4.4183820000 	   -0.8168740000 	   -0.1707880000
