15
tauto -399.794111074
C   	    0.0315360000 	    2.1298660000 	    0.0001690000
C   	   -0.0284770000 	    0.6348960000 	    0.0001140000
C   	   -1.1087210000 	   -0.1937420000 	   -0.0001920000
O   	   -2.4314460000 	    0.0028880000 	   -0.0005210000
O   	   -0.7506810000 	   -1.4722810000 	   -0.0000910000
N   	    0.6416450000 	   -1.5396510000 	    0.0009770000
C   	    1.0524240000 	   -0.2976650000 	    0.0000330000
C   	    2.5141530000 	    0.0101900000 	   -0.0001830000
H   	   -0.9707480000 	    2.5753940000 	   -0.0013270000
H   	    0.5524110000 	    2.5152220000 	   -0.8837320000
H   	    0.5499030000 	    2.5153830000 	    0.8854820000
H   	   -2.5992800000 	    0.9543390000 	   -0.0012900000
H   	    3.0893940000 	   -0.9185070000 	    0.0012620000
H   	    2.7889990000 	    0.5961000000 	    0.8837480000
H   	    2.7893320000 	    0.5934970000 	   -0.8857440000
