15
tauto -470.970574973
O   	   -2.3378450000 	   -1.2825580000 	    0.0000240000
C   	   -1.5422390000 	   -0.2042260000 	    0.0000040000
N   	   -1.8853470000 	    1.0496560000 	   -0.0000080000
N   	   -0.7356450000 	    1.8016910000 	   -0.0000390000
C   	    0.2737750000 	    0.9643140000 	    0.0000120000
N   	   -0.1898540000 	   -0.3493030000 	   -0.0000090000
C   	    0.6363050000 	   -1.4566820000 	   -0.0000320000
C   	    1.9710950000 	   -1.2534000000 	   -0.0000100000
C   	    2.5059700000 	    0.0854280000 	    0.0000180000
C   	    1.6884870000 	    1.1682890000 	    0.0000270000
H   	   -3.2485100000 	   -0.9520400000 	    0.0000890000
H   	    0.1434480000 	   -2.4217100000 	   -0.0000490000
H   	    2.6394490000 	   -2.1073920000 	   -0.0000150000
H   	    3.5837720000 	    0.2179480000 	    0.0000290000
H   	    2.0601640000 	    2.1870160000 	    0.0000330000
