18
tauto -568.234835143
O   	   -3.8269630000 	   -0.8774000000 	    0.0008510000
C   	   -2.6700540000 	   -0.2182250000 	    0.0002640000
N   	   -2.5881500000 	    1.0862340000 	   -0.0010410000
O   	   -1.2116760000 	    1.2965780000 	   -0.0011940000
C   	   -0.6342390000 	    0.0926370000 	   -0.0000570000
C   	    0.8285490000 	    0.0128990000 	    0.0000080000
C   	    1.4337300000 	   -1.2455850000 	   -0.0006930000
C   	    2.8188540000 	   -1.3419950000 	   -0.0006480000
C   	    3.5985000000 	   -0.1873290000 	    0.0000980000
C   	    2.9931580000 	    1.0668010000 	    0.0008170000
C   	    1.6078530000 	    1.1717380000 	    0.0007720000
N   	   -1.4861530000 	   -0.8908680000 	    0.0008600000
H   	   -4.5394300000 	   -0.2210940000 	    0.0002130000
H   	    0.8066320000 	   -2.1326530000 	   -0.0012380000
H   	    3.2924000000 	   -2.3198150000 	   -0.0012230000
H   	    4.6826150000 	   -0.2656280000 	    0.0001280000
H   	    3.6018450000 	    1.9668380000 	    0.0014230000
H   	    1.1270650000 	    2.1457220000 	    0.0013370000
