13
tauto -340.644393208
C   	    2.5453200000 	   -0.3685730000 	    0.0004010000
C   	    1.0790050000 	   -0.0706530000 	   -0.0000500000
N   	    0.6537440000 	    1.1823300000 	   -0.0005040000
N   	   -0.6994980000 	    1.0790180000 	    0.0001590000
H   	   -1.2515230000 	    1.9213690000 	    0.0000050000
C   	   -1.1177740000 	   -0.2087200000 	   -0.0000130000
O   	   -2.4155390000 	   -0.5829790000 	    0.0000710000
C   	    0.0051480000 	   -0.9976640000 	   -0.0005010000
H   	    3.1093200000 	    0.5674930000 	   -0.0018720000
H   	    2.8314890000 	   -0.9505240000 	   -0.8823860000
H   	    2.8318480000 	   -0.9463130000 	    0.8858510000
H   	   -2.9886950000 	    0.1931040000 	    0.0019060000
H   	    0.0419570000 	   -2.0770790000 	   -0.0006780000
