15
tauto -399.810823744
C   	    0.0748990000 	    1.9727690000 	   -0.3984980000
C   	    0.0505300000 	    0.6755910000 	    0.4110880000
C   	   -1.0472400000 	   -0.2877900000 	    0.0853660000
C   	   -2.5084910000 	    0.0036470000 	    0.1358200000
N   	   -0.6200210000 	   -1.4428940000 	   -0.2599790000
O   	    0.7937240000 	   -1.4353490000 	   -0.2320770000
C   	    1.2556090000 	   -0.2012500000 	    0.1275220000
O   	    2.4212500000 	    0.0691800000 	    0.1718350000
H   	   -0.7597400000 	    2.6236950000 	   -0.1217710000
H   	    0.0153580000 	    1.7662520000 	   -1.4717380000
H   	    1.0120010000 	    2.5012450000 	   -0.2032410000
H   	    0.0437280000 	    0.9116090000 	    1.4838170000
H   	   -2.8027710000 	    0.3257510000 	    1.1408190000
H   	   -3.0771030000 	   -0.8887200000 	   -0.1349480000
H   	   -2.7629580000 	    0.8119800000 	   -0.5589320000
