16
tauto -379.949097108
C   	    2.8464520000 	    0.1263180000 	   -0.0000620000
C   	    1.3564420000 	   -0.0132980000 	   -0.0000580000
N   	    0.5874400000 	    1.0646710000 	   -0.0003410000
N   	   -0.6845640000 	    0.5862090000 	   -0.0002470000
C   	   -1.8079270000 	    1.4894720000 	    0.0008030000
C   	   -0.7063450000 	   -0.7668250000 	   -0.0002870000
O   	   -1.8484450000 	   -1.4891210000 	    0.0004640000
C   	    0.5948360000 	   -1.2073170000 	    0.0005330000
H   	    3.1153390000 	    1.1856860000 	   -0.0015310000
H   	    3.2894160000 	   -0.3465700000 	   -0.8832790000
H   	    3.2891590000 	   -0.3440350000 	    0.8846400000
H   	   -1.3982010000 	    2.4993770000 	    0.0019160000
H   	   -2.4265190000 	    1.3607410000 	    0.8974270000
H   	   -2.4266050000 	    1.3630960000 	   -0.8961570000
H   	   -2.6134260000 	   -0.8999300000 	   -0.0090260000
H   	    0.9375130000 	   -2.2316540000 	    0.0008470000
