15
tauto -396.005632591
C   	   -1.9037690000 	   -1.4279660000 	    0.0069890000
N   	   -0.7661020000 	   -0.5503170000 	   -0.0092190000
C   	   -0.8091030000 	    0.8120980000 	   -0.0041470000
C   	    0.6591080000 	    1.2376640000 	   -0.0083370000
O   	   -1.8025230000 	    1.5139040000 	    0.0053920000
N   	    0.5252260000 	   -1.0918950000 	    0.0096160000
C   	    1.3403540000 	   -0.0984030000 	    0.0057210000
N   	    2.7048990000 	   -0.2511390000 	   -0.0774460000
H   	   -2.7938920000 	   -0.7956750000 	   -0.0025620000
H   	   -1.9017980000 	   -2.0486070000 	    0.9091690000
H   	   -1.9025940000 	   -2.0780710000 	   -0.8738130000
H   	    0.8837000000 	    1.8574130000 	    0.8659090000
H   	    0.8945790000 	    1.8178680000 	   -0.9058700000
H   	    3.0191370000 	   -1.1971020000 	    0.0967520000
H   	    3.2533460000 	    0.4460430000 	    0.4052630000
