16
tauto -379.956337489
C   	    2.1537370000 	   -1.3620390000 	    0.0001970000
C   	    0.8395320000 	   -0.6473110000 	    0.0000470000
C   	   -0.4415410000 	   -1.1557670000 	   -0.0002620000
N   	   -1.3050640000 	   -0.1157250000 	   -0.0006410000
C   	   -2.7466690000 	   -0.1464300000 	    0.0005050000
N   	   -0.6636150000 	    1.0722750000 	   -0.0002920000
C   	    0.6156700000 	    0.7469900000 	    0.0000430000
O   	    1.5922810000 	    1.6822900000 	    0.0001550000
H   	    2.0084140000 	   -2.4467780000 	   -0.0019920000
H   	    2.7487010000 	   -1.1039580000 	    0.8832810000
H   	    2.7505900000 	   -1.1006480000 	   -0.8806270000
H   	   -0.7949360000 	   -2.1796050000 	   -0.0004060000
H   	   -3.0737830000 	   -1.1886110000 	   -0.0035490000
H   	   -3.1373200000 	    0.3577530000 	   -0.8878960000
H   	   -3.1363250000 	    0.3505840000 	    0.8934220000
H   	    1.1527830000 	    2.5444320000 	   -0.0001300000
