22
tauto -587.695653466
N   	    3.5823420000 	   -1.5038160000 	    0.0716910000
C   	    2.5226640000 	   -0.6368120000 	   -0.0069010000
C   	    2.6732980000 	    0.8506480000 	    0.0083480000
C   	    1.2127400000 	    1.2896250000 	    0.0047540000
O   	    0.7955700000 	    2.4300650000 	    0.0023050000
N   	    1.3012720000 	   -1.0310830000 	   -0.0141560000
N   	    0.4899020000 	    0.1173730000 	    0.0020170000
C   	   -0.9145870000 	   -0.0518950000 	    0.0002260000
C   	   -1.7722440000 	    1.0531160000 	   -0.0060450000
C   	   -3.1474740000 	    0.8470040000 	   -0.0069510000
C   	   -3.6823450000 	   -0.4366610000 	   -0.0018590000
C   	   -2.8199400000 	   -1.5285580000 	    0.0045590000
C   	   -1.4428860000 	   -1.3458370000 	    0.0057200000
H   	    4.4372910000 	   -1.2050630000 	   -0.3737890000
H   	    3.3441540000 	   -2.4703860000 	   -0.1071040000
H   	    3.1938750000 	    1.2518280000 	   -0.8672760000
H   	    3.1838880000 	    1.2146440000 	    0.9051570000
H   	   -1.3608200000 	    2.0540230000 	   -0.0097690000
H   	   -3.8070790000 	    1.7113220000 	   -0.0116810000
H   	   -4.7588280000 	   -0.5852590000 	   -0.0025600000
H   	   -3.2195470000 	   -2.5397540000 	    0.0092850000
H   	   -0.7674630000 	   -2.1929740000 	    0.0113280000
