16
tauto -379.952986232
C   	    1.9925190000 	    1.4252550000 	   -0.0001770000
C   	    0.6816460000 	    0.7087900000 	   -0.0000790000
C   	   -0.6144050000 	    1.1853710000 	    0.0006060000
C   	   -1.4086980000 	    0.0170350000 	   -0.0001500000
O   	   -2.7604720000 	   -0.0886380000 	   -0.0001090000
N   	   -0.6868020000 	   -1.0847660000 	   -0.0006580000
N   	    0.5926410000 	   -0.6399970000 	   -0.0003740000
C   	    1.6766180000 	   -1.5943520000 	    0.0006670000
H   	    1.8273050000 	    2.5051980000 	    0.0018160000
H   	    2.5886170000 	    1.1767320000 	   -0.8862660000
H   	    2.5903890000 	    1.1737340000 	    0.8838600000
H   	   -0.9316420000 	    2.2200090000 	    0.0011880000
H   	   -3.1281350000 	    0.8022840000 	   -0.0001870000
H   	    1.2266070000 	   -2.5867700000 	   -0.0035420000
H   	    2.2989760000 	   -1.4831760000 	    0.8952190000
H   	    2.3046940000 	   -1.4781570000 	   -0.8891990000
