26
tauto -610.950278358
C   	    3.6330430000 	    1.1754160000 	    0.1737840000
C   	    2.3393500000 	    0.4306660000 	    0.0559590000
C   	    2.1356710000 	   -0.9629890000 	   -0.1238360000
C   	    3.1865490000 	   -2.0189290000 	   -0.2510780000
N   	    0.8557620000 	   -1.2747010000 	   -0.1877380000
N   	    0.1871040000 	   -0.0964070000 	   -0.0526060000
C   	   -1.2327430000 	   -0.0923710000 	   -0.0316390000
C   	   -1.9592060000 	    1.0328500000 	   -0.4185220000
C   	   -3.3496760000 	    0.9918710000 	   -0.3840840000
C   	   -4.0168620000 	   -0.1612280000 	    0.0139940000
C   	   -3.2809030000 	   -1.2843820000 	    0.3828770000
C   	   -1.8927040000 	   -1.2548200000 	    0.3669640000
C   	    1.0606190000 	    0.9333040000 	    0.1012970000
O   	    0.6036460000 	    2.1942540000 	    0.2731300000
H   	    4.3529350000 	    0.8377700000 	   -0.5800750000
H   	    4.1031440000 	    1.0463230000 	    1.1563850000
H   	    3.4986860000 	    2.2532170000 	    0.0143590000
H   	    3.8073890000 	   -2.0730580000 	    0.6507200000
H   	    3.8530590000 	   -1.8161630000 	   -1.0976080000
H   	    2.7138430000 	   -2.9915770000 	   -0.4071110000
H   	   -1.4455680000 	    1.9295330000 	   -0.7444110000
H   	   -3.9126920000 	    1.8720900000 	   -0.6838340000
H   	   -5.1031360000 	   -0.1870240000 	    0.0332980000
H   	   -3.7903750000 	   -2.1934310000 	    0.6920540000
H   	   -1.3041400000 	   -2.1215670000 	    0.6466020000
H   	    1.3587950000 	    2.7512940000 	    0.5026880000
