21
tauto -607.532064436
N   	    1.2912230000 	    2.3859530000 	   -0.4059640000
C   	    1.5809320000 	    1.0748510000 	   -0.1442270000
C   	    0.7702170000 	   -0.0552170000 	   -0.6976250000
C   	   -0.6869060000 	   -0.0447670000 	   -0.2914090000
C   	   -1.6941250000 	   -0.1013720000 	   -1.2520130000
C   	   -3.0330230000 	   -0.0830720000 	   -0.8695940000
C   	   -3.3718540000 	   -0.0055700000 	    0.4767020000
C   	   -2.3687050000 	    0.0525530000 	    1.4418380000
C   	   -1.0329090000 	    0.0341210000 	    1.0602340000
N   	    2.5986620000 	    0.7070010000 	    0.5484220000
O   	    2.6293700000 	   -0.7180400000 	    0.5450750000
C   	    1.5700450000 	   -1.2288810000 	   -0.1358360000
O   	    1.3631400000 	   -2.4029030000 	   -0.2394710000
H   	    0.3062550000 	    2.5963290000 	   -0.4935600000
H   	    1.8027190000 	    3.0518550000 	    0.1583970000
H   	    0.8559680000 	   -0.0778760000 	   -1.7906060000
H   	   -1.4316700000 	   -0.1694610000 	   -2.3056440000
H   	   -3.8105810000 	   -0.1318900000 	   -1.6271340000
H   	   -4.4165430000 	    0.0073500000 	    0.7758060000
H   	   -2.6272920000 	    0.1094510000 	    2.4957950000
H   	   -0.2501750000 	    0.0752370000 	    1.8164830000
