15
tauto -399.800236702
C   	    0.1043610000 	    2.1453260000 	   -0.0001040000
C   	    0.0234200000 	    0.6534570000 	   -0.0000330000
C   	   -1.0469240000 	   -0.1830240000 	    0.0000180000
C   	   -2.5179920000 	    0.0406600000 	    0.0001670000
O   	   -0.6420680000 	   -1.4677930000 	   -0.0003090000
N   	    0.7417980000 	   -1.5146520000 	    0.0001220000
C   	    1.1138510000 	   -0.2647300000 	    0.0000600000
O   	    2.4068890000 	    0.0996690000 	    0.0000740000
H   	   -0.8930980000 	    2.5950690000 	   -0.0000530000
H   	    0.6392220000 	    2.5118420000 	   -0.8826340000
H   	    0.6392990000 	    2.5118750000 	    0.8823640000
H   	   -2.7387340000 	    1.1108550000 	   -0.0014710000
H   	   -2.9772070000 	   -0.4089080000 	    0.8861350000
H   	   -2.9777210000 	   -0.4117250000 	   -0.8840870000
H   	    2.9367970000 	   -0.7115770000 	    0.0001150000
