19
tauto -419.262112707
C   	   -1.7000510000 	    1.7948970000 	    0.0084430000
C   	   -0.7339920000 	    0.6505970000 	    0.0018270000
C   	   -1.0141520000 	   -0.7406370000 	    0.0001330000
C   	   -2.3623090000 	   -1.3883450000 	    0.0011010000
N   	    0.0886980000 	   -1.4727760000 	   -0.0074590000
N   	    1.1041990000 	   -0.5780120000 	   -0.0148370000
C   	    2.4769380000 	   -1.0215330000 	    0.0146990000
C   	    0.6439500000 	    0.6888550000 	   -0.0038870000
O   	    1.5365150000 	    1.7075050000 	   -0.0053950000
H   	   -2.4564300000 	    1.6870890000 	   -0.7776380000
H   	   -1.1977060000 	    2.7547090000 	   -0.1701970000
H   	   -2.2307580000 	    1.8849360000 	    0.9641160000
H   	   -2.9344810000 	   -1.1196590000 	    0.8969730000
H   	   -2.2473930000 	   -2.4748540000 	   -0.0236400000
H   	   -2.9535470000 	   -1.0817450000 	   -0.8700890000
H   	    2.6233200000 	   -1.7851640000 	   -0.7524220000
H   	    2.7253110000 	   -1.4430660000 	    0.9934800000
H   	    3.1244230000 	   -0.1668090000 	   -0.1880710000
H   	    1.0425600000 	    2.5370310000 	   -0.0071760000
