11
tauto -376.540575845
N   	    2.3927840000 	   -0.3347660000 	    0.0799170000
C   	    1.0594110000 	   -0.0330900000 	   -0.0063310000
C   	   -0.0254480000 	   -1.0554330000 	    0.0061830000
N   	    0.6303670000 	    1.1786560000 	   -0.0182560000
O   	   -0.7908770000 	    1.1351960000 	   -0.0012390000
C   	   -1.2425720000 	   -0.1472620000 	    0.0020250000
O   	   -2.4054280000 	   -0.4311400000 	   -0.0010770000
H   	    2.6893920000 	   -1.1835360000 	   -0.3786820000
H   	    3.0105510000 	    0.4511920000 	   -0.0764400000
H   	   -0.0093200000 	   -1.6830030000 	    0.9022400000
H   	   -0.0305870000 	   -1.7096190000 	   -0.8714810000
