26
tauto -705.974279218
C   	   -3.3372580000 	    2.5615440000 	    0.3696770000
O   	   -2.8205780000 	    1.2500320000 	    0.3393450000
C   	   -1.4587410000 	    1.2077900000 	   -0.0607700000
C   	   -1.0502010000 	   -0.2294040000 	   -0.1205780000
C   	   -1.8976290000 	   -1.2993090000 	   -0.1389100000
O   	   -3.2195040000 	   -1.3977120000 	   -0.1255140000
O   	   -1.2276060000 	   -2.4451350000 	   -0.1496700000
N   	    0.1336790000 	   -2.1657590000 	   -0.1385030000
C   	    0.2302730000 	   -0.8563430000 	   -0.1115900000
C   	    1.5648200000 	   -0.2254180000 	   -0.0575660000
C   	    1.7824940000 	    1.0420980000 	   -0.6017440000
C   	    3.0429360000 	    1.6281120000 	   -0.5418040000
C   	    4.0979450000 	    0.9505320000 	    0.0601730000
C   	    3.8890800000 	   -0.3175810000 	    0.5980350000
C   	    2.6308860000 	   -0.9029060000 	    0.5419740000
H   	   -4.3781500000 	    2.4935540000 	    0.6916000000
H   	   -3.2927550000 	    3.0302450000 	   -0.6240330000
H   	   -2.7783170000 	    3.1848020000 	    1.0814800000
H   	   -0.8372250000 	    1.7660030000 	    0.6572670000
H   	   -1.3573300000 	    1.7081660000 	   -1.0395090000
H   	   -3.5400210000 	   -0.4832480000 	    0.0015000000
H   	    0.9706560000 	    1.5672520000 	   -1.0999470000
H   	    3.2011460000 	    2.6130730000 	   -0.9733570000
H   	    5.0823720000 	    1.4086620000 	    0.1094510000
H   	    4.7110620000 	   -0.8512980000 	    1.0679620000
H   	    2.4566820000 	   -1.8890720000 	    0.9624300000
