25
tauto -647.845674097
O   	    0.5840620000 	    2.5336670000 	   -0.0728330000
C   	    0.5373150000 	    1.4399990000 	    0.4523200000
C   	   -0.5883970000 	    1.0348800000 	    1.3826080000
C   	   -1.6513860000 	    0.2869750000 	    0.5981070000
C   	   -1.8311980000 	   -1.0868800000 	    0.7546140000
C   	   -2.8087520000 	   -1.7574260000 	    0.0248240000
C   	   -3.6097040000 	   -1.0613440000 	   -0.8752020000
C   	   -3.4267400000 	    0.3085240000 	   -1.0455500000
C   	   -2.4514680000 	    0.9777910000 	   -0.3143690000
C   	    1.5970130000 	    0.4144930000 	    0.1417160000
N   	    1.5651310000 	   -0.7536940000 	    0.7868950000
C   	    2.5228900000 	   -1.6227110000 	    0.4756230000
C   	    3.5040760000 	   -1.3274470000 	   -0.4685090000
N   	    3.5433210000 	   -0.1620390000 	   -1.1138330000
C   	    2.5831610000 	    0.7066980000 	   -0.8023760000
H   	   -1.0019130000 	    1.9562100000 	    1.8028370000
H   	   -0.2042850000 	    0.4056830000 	    2.1890060000
H   	   -1.1936620000 	   -1.6318290000 	    1.4469610000
H   	   -2.9441550000 	   -2.8276050000 	    0.1602920000
H   	   -4.3738770000 	   -1.5849000000 	   -1.4441030000
H   	   -4.0464790000 	    0.8586720000 	   -1.7491450000
H   	   -2.3011610000 	    2.0470270000 	   -0.4509090000
H   	    2.5124470000 	   -2.5805070000 	    0.9910450000
H   	    4.2794510000 	   -2.0516230000 	   -0.7094620000
H   	    2.5811100000 	    1.6683620000 	   -1.3081300000
