18
tauto -568.247240118
O   	   -3.2686680000 	    0.1270340000 	   -0.0002120000
C   	   -1.9691250000 	   -0.2093640000 	   -0.0000990000
N   	   -1.6447970000 	   -1.4556000000 	    0.0000180000
N   	   -0.3341800000 	   -1.7749630000 	    0.0000320000
C   	    0.6889150000 	   -0.8700110000 	    0.0000910000
C   	    2.0349190000 	   -1.2921350000 	    0.0000060000
C   	    3.0358880000 	   -0.3478150000 	   -0.0000500000
C   	    2.7411060000 	    1.0301290000 	   -0.0000990000
C   	    1.4283510000 	    1.4414510000 	   -0.0000840000
C   	    0.3841880000 	    0.4993660000 	    0.0000380000
C   	   -1.0142440000 	    0.9321310000 	    0.0000760000
O   	   -1.3867390000 	    2.0925820000 	    0.0002460000
H   	   -3.7746320000 	   -0.7000560000 	   -0.0002130000
H   	   -0.1528360000 	   -2.7656090000 	    0.0007240000
H   	    2.2685750000 	   -2.3543890000 	   -0.0000350000
H   	    4.0726190000 	   -0.6749540000 	   -0.0001140000
H   	    3.5479100000 	    1.7567460000 	   -0.0001540000
H   	    1.1544770000 	    2.4927660000 	   -0.0001140000
