19
tauto -494.250766113
C   	   -1.7797190000 	    2.2844660000 	    0.0000550000
N   	   -1.1600030000 	    0.9849590000 	   -0.0000450000
C   	    0.1619590000 	    0.6604930000 	   -0.0000270000
C   	    0.2372020000 	   -0.7452320000 	   -0.0000030000
C   	    1.4797340000 	   -1.3976980000 	    0.0000250000
C   	    2.6199110000 	   -0.6244400000 	    0.0000220000
C   	    2.5350510000 	    0.7887040000 	   -0.0000050000
C   	    1.3269900000 	    1.4512720000 	   -0.0000280000
N   	   -1.9489180000 	   -0.1290110000 	   -0.0000260000
C   	   -1.1314730000 	   -1.1480470000 	   -0.0000120000
O   	   -1.5592530000 	   -2.4259630000 	   -0.0000020000
H   	   -0.9979550000 	    3.0468070000 	   -0.0000060000
H   	   -2.4014470000 	    2.4124300000 	    0.8914130000
H   	   -2.4016230000 	    2.4124710000 	   -0.8911740000
H   	    1.5314800000 	   -2.4829800000 	    0.0000420000
H   	    3.5980000000 	   -1.0968920000 	    0.0000390000
H   	    3.4545050000 	    1.3690860000 	   -0.0000050000
H   	    1.2827680000 	    2.5369320000 	   -0.0000450000
H   	   -2.5271930000 	   -2.3988990000 	    0.0000810000
