17
tauto -509.282417988
C   	    2.8814520000 	    0.8567580000 	    0.0036340000
N   	    1.4667080000 	    0.5165670000 	   -0.0058700000
C   	    0.4762270000 	    1.4791490000 	   -0.0014060000
C   	   -0.8336330000 	    1.1895650000 	    0.0004050000
C   	   -1.2424200000 	   -0.2040540000 	   -0.0007110000
N   	   -0.1893250000 	   -1.1226990000 	   -0.0026780000
N   	   -2.4284000000 	   -0.6905800000 	   -0.0000420000
O   	   -3.3775070000 	    0.3416520000 	    0.0025700000
C   	    1.1551990000 	   -0.8385930000 	   -0.0013580000
O   	    2.0144900000 	   -1.6996040000 	    0.0025830000
H   	    2.9803260000 	    1.9414320000 	   -0.0707420000
H   	    3.3875950000 	    0.3850020000 	   -0.8416080000
H   	    3.3554050000 	    0.5089750000 	    0.9254090000
H   	    0.8374120000 	    2.5030270000 	   -0.0009080000
H   	   -1.5902110000 	    1.9604340000 	    0.0016920000
H   	   -0.4226950000 	   -2.1061410000 	   -0.0004250000
H   	   -4.2075190000 	   -0.1490790000 	    0.0021070000
