26
tauto -651.907968928
C   	   -3.0099940000 	   -2.0853130000 	   -0.7407690000
C   	   -3.5355400000 	   -0.7376120000 	   -0.2859400000
O   	   -2.5597720000 	    0.2995360000 	   -0.5133850000
C   	   -1.6100660000 	    0.4169770000 	    0.4038960000
C   	   -0.6237970000 	    1.5563530000 	    0.0659510000
C   	    0.6188810000 	    1.5939810000 	    0.9285200000
C   	    1.5992980000 	    0.5444730000 	    0.4365630000
C   	    2.3670530000 	    0.7980610000 	   -0.7018100000
C   	    3.2586200000 	   -0.1564650000 	   -1.1788580000
C   	    3.3873170000 	   -1.3785390000 	   -0.5242430000
C   	    2.6163330000 	   -1.6420780000 	    0.6038750000
C   	    1.7221990000 	   -0.6872490000 	    1.0797340000
O   	   -0.8478810000 	    2.3200380000 	   -0.8394680000
O   	   -1.5060190000 	   -0.2538210000 	    1.4061340000
H   	   -3.7900510000 	   -2.8450540000 	   -0.6258220000
H   	   -2.1469300000 	   -2.3842320000 	   -0.1396510000
H   	   -2.7154710000 	   -2.0481520000 	   -1.7936970000
H   	   -3.7952860000 	   -0.7476380000 	    0.7759680000
H   	   -4.4021370000 	   -0.4227020000 	   -0.8706840000
H   	    0.3498330000 	    1.4020040000 	    1.9704860000
H   	    1.0482220000 	    2.5955560000 	    0.8388160000
H   	    2.2613650000 	    1.7519370000 	   -1.2152050000
H   	    3.8543190000 	    0.0546260000 	   -2.0633000000
H   	    4.0867250000 	   -2.1243690000 	   -0.8932880000
H   	    2.7096440000 	   -2.5958410000 	    1.1171450000
H   	    1.1073080000 	   -0.8976870000 	    1.9514710000
