14
tauto -415.847193345
O   	    1.6908090000 	    1.4773830000 	   -0.1486060000
C   	    0.6833170000 	    0.8224550000 	   -0.0697870000
C   	   -0.7045640000 	    1.4396430000 	   -0.0270500000
C   	   -1.7586560000 	    0.4330130000 	    0.4352340000
N   	   -1.6526730000 	   -0.8266140000 	   -0.2933470000
N   	   -0.3837460000 	   -1.4019160000 	   -0.1201860000
C   	    0.7937600000 	   -0.7216550000 	    0.0131580000
O   	    1.8527780000 	   -1.2697500000 	    0.2292540000
H   	   -0.9341500000 	    1.7784590000 	   -1.0477620000
H   	   -0.6648240000 	    2.3371930000 	    0.5994400000
H   	   -2.7699020000 	    0.8233830000 	    0.2853760000
H   	   -1.6445650000 	    0.2063890000 	    1.5009960000
H   	   -1.7929170000 	   -0.6566950000 	   -1.2880470000
H   	   -0.3705390000 	   -2.3908190000 	    0.0902110000
