16
tauto -417.062690464
C   	    2.6734740000 	   -0.7118240000 	    0.2082260000
C   	    1.5768520000 	    0.3004870000 	    0.0599270000
C   	    0.1661470000 	   -0.2780090000 	   -0.1606580000
N   	   -0.7873700000 	    0.6725000000 	   -0.2296130000
N   	   -2.1177340000 	    0.3666110000 	   -0.5244340000
C   	   -2.8186380000 	   -0.1477040000 	    0.6536770000
O   	   -0.0329850000 	   -1.4781560000 	   -0.2736600000
O   	    1.7347000000 	    1.5017530000 	    0.0999620000
H   	    2.7038300000 	   -1.3563930000 	   -0.6758260000
H   	    2.4588630000 	   -1.3667420000 	    1.0589580000
H   	    3.6286880000 	   -0.2039190000 	    0.3478570000
H   	   -0.5151800000 	    1.6453810000 	   -0.2441120000
H   	   -2.0921430000 	   -0.3633750000 	   -1.2334380000
H   	   -2.8893900000 	    0.6478910000 	    1.4005140000
H   	   -2.3271650000 	   -1.0218280000 	    1.0998260000
H   	   -3.8324930000 	   -0.4212670000 	    0.3471070000
