16
tauto -454.947428406
O   	   -2.4452320000 	   -1.3268510000 	   -0.0000070000
C   	   -1.5738140000 	   -0.2992540000 	   -0.0000020000
N   	   -1.9529270000 	    0.9501790000 	    0.0000090000
N   	   -0.7992350000 	    1.6786420000 	   -0.0000100000
H   	   -0.8599730000 	    2.6818160000 	    0.0000340000
C   	    0.3094190000 	    0.8905210000 	   -0.0000040000
C   	   -0.1508070000 	   -0.4384550000 	   -0.0000060000
C   	    0.7580760000 	   -1.5077640000 	   -0.0000010000
C   	    2.1048730000 	   -1.2154350000 	    0.0000040000
C   	    2.5559540000 	    0.1261750000 	    0.0000040000
C   	    1.6826690000 	    1.1924030000 	   -0.0000010000
H   	   -3.3343840000 	   -0.9432870000 	    0.0000600000
H   	    0.4011160000 	   -2.5338900000 	   -0.0000010000
H   	    2.8357480000 	   -2.0190060000 	    0.0000080000
H   	    3.6257660000 	    0.3199870000 	    0.0000060000
H   	    2.0405020000 	    2.2182970000 	   -0.0000040000
