18
tauto -489.43581582
C   	    2.8925440000 	    0.8557090000 	    0.0517970000
N   	    1.4784860000 	    0.5170280000 	    0.0029590000
C   	    0.4902670000 	    1.4785430000 	   -0.0471380000
C   	   -0.8201470000 	    1.1886400000 	   -0.0617110000
C   	   -1.2392240000 	   -0.2047160000 	   -0.0395650000
N   	   -0.1789690000 	   -1.1184330000 	   -0.0453810000
N   	   -2.4220640000 	   -0.6921480000 	   -0.0161060000
N   	   -3.4415100000 	    0.2999070000 	    0.0025640000
C   	    1.1643340000 	   -0.8390920000 	   -0.0023080000
O   	    2.0242640000 	   -1.6993800000 	    0.0276030000
H   	    2.9955270000 	    1.9393130000 	   -0.0329170000
H   	    3.4236430000 	    0.3720000000 	   -0.7710860000
H   	    3.3376180000 	    0.5193530000 	    0.9920670000
H   	    0.8529000000 	    2.5015570000 	   -0.0822750000
H   	   -1.5723320000 	    1.9617460000 	   -0.1359760000
H   	   -0.4197170000 	   -2.1003520000 	   -0.0409290000
H   	   -4.3091210000 	   -0.2159490000 	   -0.1054780000
H   	   -3.4808600000 	    0.6983980000 	    0.9410700000
