12
tauto -414.630928272
O   	   -2.6618020000 	   -0.2293760000 	   -0.0004030000
C   	   -1.3170490000 	   -0.0720200000 	   -0.0000160000
C   	   -0.7090070000 	    1.2016140000 	   -0.0001420000
C   	    0.6577630000 	    1.2480780000 	   -0.0000200000
N   	   -0.6326050000 	   -1.1948450000 	    0.0000830000
N   	    0.6979200000 	   -1.1475210000 	   -0.0000050000
C   	    1.3230040000 	    0.0097700000 	    0.0000390000
O   	    2.6698550000 	   -0.0089860000 	    0.0000510000
H   	   -3.0847830000 	    0.6379030000 	    0.0035160000
H   	   -1.3059490000 	    2.1109360000 	   -0.0003870000
H   	    1.2187500000 	    2.1766180000 	   -0.0001190000
H   	    2.9220860000 	   -0.9466520000 	    0.0000870000
