10
tauto -392.637369611
O   	   -2.2990490000 	   -0.5448490000 	    0.0180220000
C   	   -1.1516960000 	   -0.1811880000 	   -0.0344570000
N   	   -0.0000290000 	   -0.9527750000 	   -0.0000700000
N   	   -0.6954970000 	    1.1402210000 	   -0.1329080000
N   	    0.6954780000 	    1.1400050000 	    0.1330250000
C   	    1.1517180000 	   -0.1810880000 	    0.0344470000
O   	    2.2990380000 	   -0.5449040000 	   -0.0182040000
H   	   -0.0000160000 	   -1.9608900000 	   -0.0001670000
H   	   -1.2108140000 	    1.7799070000 	    0.4616170000
H   	    1.2111150000 	    1.7805120000 	   -0.4602650000
