18
tauto -568.238613038
O   	    1.0353260000 	    2.7361870000 	    0.0071060000
C   	    0.9821450000 	    1.3819650000 	    0.0059040000
C   	   -0.2878320000 	    0.6918060000 	   -0.0010800000
C   	   -1.5517260000 	    1.3181620000 	   -0.0339930000
C   	   -2.6971420000 	    0.5555500000 	   -0.0244410000
C   	   -2.6234580000 	   -0.8512390000 	    0.0123680000
C   	   -1.4014300000 	   -1.4818630000 	    0.0269670000
C   	   -0.2238130000 	   -0.7093430000 	    0.0164860000
N   	    2.1312790000 	    0.7865150000 	   -0.0113750000
N   	    2.1864730000 	   -0.5737400000 	   -0.0301260000
C   	    1.0960340000 	   -1.2704700000 	   -0.0006930000
O   	    1.1962410000 	   -2.6146030000 	    0.0036310000
H   	    0.1866560000 	    3.0942150000 	    0.2924160000
H   	   -1.6393970000 	    2.4009740000 	   -0.0912540000
H   	   -3.6684800000 	    1.0416160000 	   -0.0529660000
H   	   -3.5390730000 	   -1.4360010000 	    0.0201110000
H   	   -1.3215010000 	   -2.5642830000 	    0.0429680000
H   	    2.1483260000 	   -2.8060130000 	   -0.0157700000
