12
tauto -414.643655075
O   	    2.6559790000 	   -0.1728310000 	   -0.0002550000
C   	    1.3046960000 	   -0.0724760000 	    0.0000000000
C   	    0.6520410000 	    1.2142160000 	    0.0001260000
C   	   -0.6935090000 	    1.2655000000 	    0.0001590000
N   	    0.6587400000 	   -1.1869950000 	    0.0000500000
N   	   -0.6876550000 	   -1.0973560000 	    0.0003660000
C   	   -1.4822890000 	    0.0316120000 	   -0.0000110000
O   	   -2.7014690000 	   -0.0383230000 	   -0.0003500000
H   	    3.0425260000 	    0.7107010000 	   -0.0001550000
H   	    1.2501510000 	    2.1238770000 	    0.0001920000
H   	   -1.2448060000 	    2.1998180000 	    0.0001980000
H   	   -1.1671770000 	   -1.9878200000 	    0.0000440000
