10
tauto -392.637369654
O   	   -2.2990450000 	   -0.5448690000 	    0.0180720000
C   	   -1.1516990000 	   -0.1811170000 	   -0.0345060000
N   	   -0.0000010000 	   -0.9527630000 	    0.0000450000
N   	   -0.6954620000 	    1.1400590000 	   -0.1330040000
N   	    0.6954560000 	    1.1400270000 	    0.1330260000
C   	    1.1516950000 	   -0.1811070000 	    0.0343360000
O   	    2.2990500000 	   -0.5448740000 	   -0.0180380000
H   	   -0.0000200000 	   -1.9608770000 	    0.0000590000
H   	   -1.2109630000 	    1.7803990000 	    0.4605900000
H   	    1.2110040000 	    1.7805050000 	   -0.4603700000
