20
tauto -623.628515817
O   	    3.6454020000 	   -1.3184290000 	    0.0771590000
C   	    2.6516050000 	   -0.6394420000 	    0.0144140000
N   	    2.5373950000 	    0.7002060000 	   -0.3060990000
C   	    1.2475740000 	    1.1857450000 	   -0.1269670000
O   	    0.8498250000 	    2.3061540000 	   -0.3360620000
N   	    1.3390730000 	   -1.0566770000 	    0.2710550000
N   	    0.5230140000 	    0.0924380000 	    0.3431410000
C   	   -0.8788440000 	   -0.0622670000 	    0.1548630000
C   	   -1.7229870000 	    1.0217430000 	    0.4029310000
C   	   -3.0937050000 	    0.8630580000 	    0.2421940000
C   	   -3.6300950000 	   -0.3634490000 	   -0.1406760000
C   	   -2.7794110000 	   -1.4378570000 	   -0.3739860000
C   	   -1.4028270000 	   -1.2944400000 	   -0.2320420000
H   	    3.3141080000 	    1.2828420000 	   -0.5773880000
H   	    1.2567490000 	   -1.6523890000 	    1.0888870000
H   	   -1.3022660000 	    1.9747720000 	    0.7004120000
H   	   -3.7489040000 	    1.7098740000 	    0.4283960000
H   	   -4.7040010000 	   -0.4804150000 	   -0.2556600000
H   	   -3.1841100000 	   -2.3997150000 	   -0.6776590000
H   	   -0.7376220000 	   -2.1270870000 	   -0.4368290000
