22
tauto -753.906135141
O   	    2.0419690000 	    2.7165450000 	    0.0000080000
C   	    2.0519840000 	    1.3764510000 	   -0.0000030000
C   	    0.7701530000 	    0.6915610000 	   -0.0000020000
N   	   -0.3502950000 	    1.3981270000 	   -0.0000020000
C   	   -1.4926410000 	    0.6909130000 	   -0.0000040000
C   	   -2.7462890000 	    1.3733750000 	   -0.0000060000
C   	   -3.9065960000 	    0.6603080000 	   -0.0000010000
C   	   -3.8903690000 	   -0.7692030000 	    0.0000050000
C   	   -2.7131240000 	   -1.4530420000 	    0.0000040000
C   	   -1.4732220000 	   -0.7425680000 	   -0.0000010000
N   	   -0.3248100000 	   -1.4390350000 	    0.0000000000
C   	    0.7877380000 	   -0.7199240000 	   -0.0000010000
N   	    3.1846440000 	    0.7603890000 	   -0.0000010000
N   	    3.2020380000 	   -0.6153300000 	    0.0000010000
C   	    2.1133150000 	   -1.3096200000 	   -0.0000030000
O   	    2.1905080000 	   -2.6473940000 	   -0.0000010000
H   	    1.1080910000 	    2.9900230000 	    0.0000130000
H   	   -2.7313260000 	    2.4591280000 	   -0.0000130000
H   	   -4.8623630000 	    1.1770040000 	   -0.0000030000
H   	   -4.8341390000 	   -1.3072960000 	    0.0000110000
H   	   -2.6671550000 	   -2.5377590000 	    0.0000070000
H   	    3.1403370000 	   -2.8528780000 	    0.0000010000
