26
tauto -631.814244574
O   	   -0.0508330000 	    1.5364040000 	   -0.2875450000
C   	   -0.4561860000 	    0.4276320000 	   -0.0044880000
C   	    0.5008820000 	   -0.6971040000 	    0.3881900000
C   	    1.9564720000 	   -0.3708580000 	    0.1934710000
C   	    2.7576080000 	   -1.1685190000 	   -0.6210980000
N   	    4.0584690000 	   -0.9683940000 	   -0.8353210000
C   	    4.6185330000 	    0.0749800000 	   -0.2246350000
C   	    3.9186130000 	    0.9433090000 	    0.6083190000
C   	    2.5663490000 	    0.7160630000 	    0.8194050000
C   	   -1.9273860000 	    0.1289720000 	   -0.0075260000
C   	   -2.7946620000 	    1.1463200000 	   -0.4152450000
C   	   -4.1660310000 	    0.9338700000 	   -0.4363380000
C   	   -4.6846540000 	   -0.2987270000 	   -0.0443600000
C   	   -3.8289510000 	   -1.3160410000 	    0.3673100000
C   	   -2.4542520000 	   -1.1044200000 	    0.3841830000
H   	    0.2406070000 	   -1.5980780000 	   -0.1807800000
H   	    0.2972700000 	   -0.9408510000 	    1.4411830000
H   	    2.3197800000 	   -2.0269790000 	   -1.1330500000
H   	    5.6811170000 	    0.2250570000 	   -0.4103240000
H   	    4.4257970000 	    1.7813120000 	    1.0774850000
H   	    1.9848870000 	    1.3786110000 	    1.4546390000
H   	   -2.3655920000 	    2.0987380000 	   -0.7123470000
H   	   -4.8340810000 	    1.7286460000 	   -0.7573990000
H   	   -5.7586200000 	   -0.4665260000 	   -0.0598170000
H   	   -4.2324130000 	   -2.2769390000 	    0.6752000000
H   	   -1.7993750000 	   -1.9083300000 	    0.7096820000
