11
tauto -260.616513913
N   	    1.6649210000 	   -0.6143940000 	   -0.0764940000
C   	    0.4805380000 	    0.1173100000 	    0.0090420000
N   	   -0.6337380000 	   -0.7159430000 	    0.0660640000
N   	   -1.9028310000 	   -0.1172710000 	   -0.0553970000
N   	    0.3338740000 	    1.3864290000 	    0.0064810000
H   	    1.6640040000 	   -1.4628420000 	    0.4752390000
H   	    2.5005110000 	   -0.0679590000 	    0.0779320000
H   	   -0.5583390000 	   -1.5256360000 	   -0.5362490000
H   	   -1.7754240000 	    0.7576370000 	   -0.5669590000
H   	   -2.1833260000 	    0.1623750000 	    0.8809860000
H   	    1.2337610000 	    1.8608210000 	    0.0302230000
