23
tauto -550.793540433
N   	   -4.4768980000 	   -0.6912730000 	    0.1196300000
C   	   -3.3668950000 	    0.1464000000 	   -0.0099710000
N   	   -2.1779060000 	   -0.5619950000 	    0.0489250000
C   	   -0.9541220000 	    0.1930560000 	    0.0722500000
O   	    0.0758570000 	   -0.7616700000 	   -0.0704860000
C   	    1.3604250000 	   -0.3093870000 	   -0.0323770000
C   	    1.7190280000 	    1.0368260000 	    0.0318910000
C   	    3.0706980000 	    1.3820650000 	    0.0595260000
C   	    4.0589070000 	    0.4084160000 	    0.0219920000
C   	    3.6882690000 	   -0.9354160000 	   -0.0452500000
C   	    2.3506060000 	   -1.2956270000 	   -0.0717420000
N   	   -3.3549330000 	    1.4180310000 	   -0.1430610000
H   	   -4.3854020000 	   -1.5733420000 	   -0.3680870000
H   	   -5.3573200000 	   -0.2393710000 	   -0.0845160000
H   	   -2.1814420000 	   -1.3413110000 	    0.6946730000
H   	   -0.8196470000 	    0.7538040000 	    1.0113220000
H   	   -0.9710290000 	    0.9077330000 	   -0.7571940000
H   	    0.9670720000 	    1.8187690000 	    0.0559070000
H   	    3.3433680000 	    2.4333420000 	    0.1102410000
H   	    5.1083240000 	    0.6884420000 	    0.0441060000
H   	    4.4503620000 	   -1.7101110000 	   -0.0764690000
H   	    2.0424440000 	   -2.3358170000 	   -0.1243930000
H   	   -4.2969280000 	    1.7798820000 	   -0.2780640000
