14
tauto -303.744718347
N   	    2.2387170000 	    0.0603960000 	    0.4372280000
C   	    1.2676710000 	   -0.6699190000 	   -0.3866660000
C   	   -0.0781420000 	   -0.0354910000 	   -0.1881930000
O   	   -0.0630950000 	    1.3376050000 	   -0.2350130000
C   	   -1.2211480000 	   -0.6897550000 	    0.0253070000
N   	   -2.4455850000 	   -0.0583190000 	    0.3101590000
H   	    3.1902310000 	   -0.1651730000 	    0.1670790000
H   	    2.1304020000 	   -0.1979160000 	    1.4142120000
H   	    1.2120030000 	   -1.7490430000 	   -0.1822580000
H   	    1.5844230000 	   -0.5447550000 	   -1.4308760000
H   	    0.8487460000 	    1.5822880000 	    0.0073630000
H   	   -1.2290140000 	   -1.7758850000 	    0.0445550000
H   	   -2.3778310000 	    0.9410830000 	    0.1536440000
H   	   -3.2164130000 	   -0.4349840000 	   -0.2280120000
