21
tauto -491.607631989
N   	   -2.7737360000 	   -0.6055770000 	    1.1788760000
C   	   -2.7628170000 	    0.1137150000 	    0.0005270000
N   	   -1.5092790000 	    0.1840730000 	   -0.6151770000
N   	   -0.5512500000 	   -0.7589400000 	   -0.2835910000
C   	    0.7789280000 	   -0.3076990000 	   -0.1535660000
C   	    1.0795680000 	    1.0324490000 	    0.0925270000
C   	    2.4044740000 	    1.4195950000 	    0.2673800000
C   	    3.4375630000 	    0.4904220000 	    0.1991310000
C   	    3.1313890000 	   -0.8450170000 	   -0.0498470000
C   	    1.8135170000 	   -1.2450180000 	   -0.2274180000
N   	   -3.7367610000 	    0.6935480000 	   -0.5887810000
H   	   -3.5027020000 	   -0.3576850000 	    1.8299750000
H   	   -1.8674720000 	   -0.7746870000 	    1.5927240000
H   	   -1.5839240000 	    0.4444560000 	   -1.5931940000
H   	   -0.6309530000 	   -1.6259450000 	   -0.8060650000
H   	    0.2732050000 	    1.7570450000 	    0.1409950000
H   	    2.6273490000 	    2.4668260000 	    0.4570870000
H   	    4.4693330000 	    0.8020090000 	    0.3351830000
H   	    3.9251100000 	   -1.5855500000 	   -0.1100350000
H   	    1.5813100000 	   -2.2913660000 	   -0.4195330000
H   	   -4.5897980000 	    0.6224880000 	   -0.0388300000
