20
tauto -623.605443188
O   	    3.5617890000 	   -1.4521110000 	    0.0004090000
C   	    2.4945010000 	   -0.6464880000 	    0.0002250000
N   	    2.5584140000 	    0.7233360000 	   -0.0002310000
C   	    1.2470960000 	    1.2152600000 	   -0.0003540000
O   	    0.9140270000 	    2.3834030000 	   -0.0007530000
N   	    1.2895550000 	   -1.0882180000 	    0.0004060000
N   	    0.5010260000 	    0.0571940000 	    0.0000230000
C   	   -0.9107600000 	   -0.0676560000 	    0.0000390000
C   	   -1.7277690000 	    1.0651760000 	    0.0007090000
C   	   -3.1090980000 	    0.9021640000 	    0.0006980000
C   	   -3.6819040000 	   -0.3649720000 	    0.0000500000
C   	   -2.8548160000 	   -1.4843660000 	   -0.0005940000
C   	   -1.4727480000 	   -1.3451220000 	   -0.0006190000
H   	    4.3766800000 	   -0.9357800000 	    0.0007130000
H   	    3.3615220000 	    1.3314510000 	   -0.0005320000
H   	   -1.2823700000 	    2.0522180000 	    0.0011800000
H   	   -3.7416840000 	    1.7863460000 	    0.0012110000
H   	   -4.7623530000 	   -0.4803540000 	    0.0000540000
H   	   -3.2861200000 	   -2.4822360000 	   -0.0011090000
H   	   -0.8221740000 	   -2.2121430000 	   -0.0010830000
