20
tauto -420.255615194
C   	    2.1456990000 	    1.2840790000 	    0.6371530000
C   	    2.2478440000 	   -0.0831610000 	    0.0035660000
N   	    1.0781490000 	   -0.6991440000 	   -0.4123540000
C   	   -0.2637780000 	   -0.3300910000 	   -0.2122670000
C   	   -1.1762430000 	   -1.3099990000 	    0.1944910000
C   	   -2.5204310000 	   -1.0006790000 	    0.3573140000
C   	   -2.9768950000 	    0.2957590000 	    0.1361240000
C   	   -2.0744920000 	    1.2715590000 	   -0.2739040000
C   	   -0.7319000000 	    0.9627950000 	   -0.4657800000
N   	    3.3318550000 	   -0.7349120000 	   -0.1823580000
H   	    1.2910780000 	    1.3574350000 	    1.3154710000
H   	    2.0381610000 	    2.0631940000 	   -0.1246270000
H   	    3.0601440000 	    1.4865760000 	    1.1997780000
H   	    1.2441930000 	   -1.6619270000 	   -0.6742580000
H   	   -0.8180740000 	   -2.3182650000 	    0.3912730000
H   	   -3.2131160000 	   -1.7770450000 	    0.6722030000
H   	   -4.0265470000 	    0.5398060000 	    0.2736710000
H   	   -2.4193050000 	    2.2837250000 	   -0.4704070000
H   	   -0.0510280000 	    1.7208320000 	   -0.8391160000
H   	    4.1256310000 	   -0.1975230000 	    0.1588120000
