18
tauto -472.457405331
C   	   -3.1997490000 	    0.2674060000 	    0.7977780000
C   	   -2.6139920000 	   -0.3370270000 	   -0.4630520000
O   	   -1.3031640000 	   -0.8819900000 	   -0.2195070000
C   	   -0.2931690000 	    0.0030820000 	   -0.2280290000
N   	    0.8811570000 	   -0.6547580000 	    0.0346300000
C   	    2.1898510000 	   -0.1175670000 	    0.1106440000
N   	    2.2527870000 	    1.2441530000 	    0.1553120000
N   	    3.2402290000 	   -0.8393490000 	    0.1849220000
O   	   -0.4197880000 	    1.1925420000 	   -0.4462030000
H   	   -4.2232940000 	    0.6062110000 	    0.6066120000
H   	   -2.6069270000 	    1.1278360000 	    1.1194960000
H   	   -3.2256660000 	   -0.4713710000 	    1.6045190000
H   	   -2.5436510000 	    0.4028010000 	   -1.2641930000
H   	   -3.1972770000 	   -1.1928600000 	   -0.8098780000
H   	    0.8038730000 	   -1.6553210000 	    0.1403220000
H   	    1.4611330000 	    1.7714940000 	   -0.1854720000
H   	    3.1793690000 	    1.6131250000 	    0.0109310000
H   	    3.0192020000 	   -1.8320150000 	    0.1752450000
