26
tauto -631.819587897
O   	    0.5772130000 	    2.5441880000 	   -0.0491860000
C   	    0.5231790000 	    1.4314170000 	    0.4402030000
C   	   -0.6542810000 	    1.0547460000 	    1.3335980000
C   	   -1.7139210000 	    0.3102150000 	    0.5472920000
N   	   -1.9347760000 	   -0.9648180000 	    0.8778880000
C   	   -2.8654770000 	   -1.6328560000 	    0.1915250000
C   	   -3.6078410000 	   -1.0786330000 	   -0.8434740000
C   	   -3.3641880000 	    0.2471330000 	   -1.1884810000
C   	   -2.4012740000 	    0.9546000000 	   -0.4835570000
C   	    1.5813280000 	    0.4106530000 	    0.1593030000
C   	    2.7198900000 	    0.8261770000 	   -0.5377130000
C   	    3.7344090000 	   -0.0763260000 	   -0.8229870000
C   	    3.6131480000 	   -1.4059770000 	   -0.4221070000
C   	    2.4773520000 	   -1.8285180000 	    0.2617640000
C   	    1.4623180000 	   -0.9236880000 	    0.5577390000
H   	   -1.0634600000 	    1.9949970000 	    1.7145070000
H   	   -0.3419590000 	    0.4344490000 	    2.1769190000
H   	   -3.0210030000 	   -2.6686420000 	    0.4891750000
H   	   -4.3519560000 	   -1.6728980000 	   -1.3651450000
H   	   -3.9159100000 	    0.7216180000 	   -1.9960050000
H   	   -2.1684640000 	    1.9898140000 	   -0.7189650000
H   	    2.7859770000 	    1.8662740000 	   -0.8438490000
H   	    4.6206900000 	    0.2528820000 	   -1.3591310000
H   	    4.4059650000 	   -2.1152880000 	   -0.6469150000
H   	    2.3788420000 	   -2.8672620000 	    0.5657780000
H   	    0.5691570000 	   -1.2693920000 	    1.0732740000
