18
tauto -419.054512803
C   	    1.2807230000 	    1.4068220000 	    0.1689110000
N   	    2.3513310000 	    0.5043360000 	   -0.2268030000
C   	    2.2201510000 	   -0.8443020000 	   -0.0588480000
N   	    1.1267260000 	   -1.4914490000 	    0.1064510000
C   	   -0.0531590000 	   -0.7177820000 	    0.0704440000
C   	   -0.0419490000 	    0.6837290000 	    0.0525190000
C   	   -1.2406200000 	    1.3858050000 	   -0.0215920000
C   	   -2.4560690000 	    0.7113690000 	   -0.0700160000
C   	   -2.4704550000 	   -0.6817780000 	   -0.0464590000
C   	   -1.2772780000 	   -1.3885760000 	    0.0203040000
H   	    1.2938360000 	    2.2887550000 	   -0.4826330000
H   	    1.4313640000 	    1.7634340000 	    1.2019420000
H   	    3.2883580000 	    0.8751680000 	   -0.2354460000
H   	    3.1567230000 	   -1.4013380000 	   -0.1134150000
H   	   -1.2220320000 	    2.4748270000 	   -0.0401560000
H   	   -3.3868380000 	    1.2695890000 	   -0.1261790000
H   	   -3.4156540000 	   -1.2175110000 	   -0.0845780000
H   	   -1.2602110000 	   -2.4748490000 	    0.0313540000
