25
tauto -572.864006838
C   	   -4.7205110000 	   -0.6082490000 	   -0.0013910000
C   	   -3.2332170000 	   -0.8107800000 	   -0.2462320000
N   	   -2.4949030000 	    0.3928650000 	    0.0981890000
C   	   -1.1338190000 	    0.3998940000 	    0.1038700000
N   	   -0.4601680000 	   -0.6820790000 	   -0.0548980000
C   	    0.9386800000 	   -0.5388700000 	    0.0082620000
C   	    1.7552080000 	   -1.6614680000 	    0.1376350000
C   	    3.1402970000 	   -1.5378760000 	    0.1196400000
C   	    3.7275500000 	   -0.2849930000 	   -0.0435130000
C   	    2.9298890000 	    0.8488380000 	   -0.1692210000
C   	    1.5497670000 	    0.7145760000 	   -0.1318220000
O   	    0.7640700000 	    1.8329220000 	   -0.2796090000
C   	   -0.4684410000 	    1.7279660000 	    0.4022450000
H   	   -5.2740830000 	   -1.5173500000 	   -0.2538240000
H   	   -5.1207710000 	    0.2040610000 	   -0.6205900000
H   	   -4.9152720000 	   -0.3683070000 	    1.0489880000
H   	   -3.0415110000 	   -1.0916130000 	   -1.2914640000
H   	   -2.8399820000 	   -1.6245040000 	    0.3699690000
H   	   -2.9604200000 	    1.2745130000 	   -0.0575120000
H   	    1.2742060000 	   -2.6305150000 	    0.2396360000
H   	    3.7629220000 	   -2.4226890000 	    0.2219710000
H   	    4.8095590000 	   -0.1857750000 	   -0.0672090000
H   	    3.3587890000 	    1.8390400000 	   -0.2941910000
H   	   -1.0782580000 	    2.5736390000 	    0.0712580000
H   	   -0.3146650000 	    1.8163950000 	    1.4899600000
