29
tauto -725.245168471
C   	   -0.1684700000 	    1.0026380000 	   -0.0660480000
O   	   -1.3305900000 	    1.3452250000 	   -0.7948250000
C   	   -2.4474730000 	    0.6750000000 	   -0.3638080000
C   	   -3.6915700000 	    1.2806120000 	   -0.4695310000
C   	   -4.8212030000 	    0.5870760000 	   -0.0464390000
C   	   -4.6996860000 	   -0.7005870000 	    0.4742590000
C   	   -3.4510360000 	   -1.3062840000 	    0.5518470000
C   	   -2.3078070000 	   -0.6286840000 	    0.1289480000
N   	   -1.0587040000 	   -1.2711750000 	    0.1257640000
C   	   -0.0336690000 	   -0.5093250000 	    0.0008180000
N   	    1.1999390000 	   -1.0906960000 	   -0.1445350000
C   	    2.4710630000 	   -0.5006100000 	   -0.0146500000
C   	    3.5202410000 	   -0.9882670000 	   -0.7998040000
C   	    4.7935030000 	   -0.4480080000 	   -0.6789920000
C   	    5.0350260000 	    0.5981130000 	    0.2085680000
C   	    3.9929660000 	    1.0829330000 	    0.9910030000
C   	    2.7205150000 	    0.5277220000 	    0.8972620000
H   	   -0.2303510000 	    1.4196350000 	    0.9520640000
H   	    0.6727880000 	    1.4651390000 	   -0.5847450000
H   	   -3.7555480000 	    2.2857730000 	   -0.8762970000
H   	   -5.7981740000 	    1.0574770000 	   -0.1189310000
H   	   -5.5830110000 	   -1.2379170000 	    0.8086850000
H   	   -3.3340780000 	   -2.3188440000 	    0.9284620000
H   	    1.1564800000 	   -2.0964770000 	   -0.2435670000
H   	    3.3239080000 	   -1.7850360000 	   -1.5134270000
H   	    5.5999790000 	   -0.8384580000 	   -1.2942210000
H   	    6.0294880000 	    1.0268200000 	    0.2938300000
H   	    4.1716730000 	    1.8858650000 	    1.7014330000
H   	    1.9285170000 	    0.8733410000 	    1.5561070000
