23
tauto -534.553682161
C   	   -3.8362300000 	    0.6009780000 	   -0.0019250000
C   	   -2.7880170000 	    1.3531410000 	   -0.5224590000
C   	   -1.4988010000 	    0.8346440000 	   -0.5779220000
C   	   -3.5812390000 	   -0.6847070000 	    0.4672490000
C   	   -2.2927050000 	   -1.2023920000 	    0.4374940000
C   	   -1.2361280000 	   -0.4464590000 	   -0.0816610000
N   	    0.0410380000 	   -1.0252240000 	   -0.1340320000
C   	    1.2794970000 	   -0.4197100000 	   -0.0354900000
N   	    2.2980970000 	   -1.1990190000 	   -0.4157290000
C   	    3.5320190000 	   -0.7022290000 	   -0.3239600000
C   	    3.8271510000 	    0.5734520000 	    0.1341330000
C   	    2.7583730000 	    1.3674800000 	    0.5471750000
C   	    1.4666540000 	    0.8774380000 	    0.4729080000
H   	   -4.8420270000 	    1.0101510000 	    0.0330350000
H   	   -2.9745850000 	    2.3513350000 	   -0.9108850000
H   	   -0.6985140000 	    1.4137400000 	   -1.0288600000
H   	   -4.3894620000 	   -1.2881740000 	    0.8728400000
H   	   -2.0908560000 	   -2.1976820000 	    0.8272690000
H   	    0.0999040000 	   -2.0121030000 	   -0.3398010000
H   	    4.3295970000 	   -1.3732720000 	   -0.6406060000
H   	    4.8523250000 	    0.9261590000 	    0.1784820000
H   	    2.9319010000 	    2.3661620000 	    0.9408650000
H   	    0.6243330000 	    1.4635740000 	    0.8227390000
