12
tauto -319.611280647
N   	    2.2220760000 	    0.0000000000 	   -0.0530300000
C   	    0.8605960000 	   -0.0000010000 	   -0.0061710000
N   	    0.2588300000 	   -1.2003570000 	    0.0030620000
C   	   -1.0698730000 	   -1.1761210000 	    0.0028590000
C   	   -1.8103480000 	    0.0000010000 	   -0.0026560000
C   	   -1.0698720000 	    1.1761220000 	    0.0028580000
N   	    0.2588310000 	    1.2003560000 	    0.0030640000
H   	    2.6889640000 	   -0.8655410000 	    0.1637750000
H   	    2.6889590000 	    0.8655480000 	    0.1637630000
H   	   -1.5624360000 	   -2.1481150000 	    0.0108930000
H   	   -2.8942310000 	    0.0000000000 	   -0.0023370000
H   	   -1.5624340000 	    2.1481160000 	    0.0108920000
