25
tauto -647.848361975
O   	    0.5443170000 	    2.5353260000 	   -0.0594130000
C   	    0.5040350000 	    1.4243200000 	    0.4332320000
C   	   -0.6757760000 	    1.0400470000 	    1.3248560000
C   	   -1.7227600000 	    0.2811050000 	    0.5426050000
N   	   -1.9281390000 	   -1.0020040000 	    0.8415460000
C   	   -2.8599410000 	   -1.6371540000 	    0.1285210000
C   	   -3.5789180000 	   -1.0023750000 	   -0.8766290000
N   	   -3.3739180000 	    0.2786670000 	   -1.1883330000
C   	   -2.4454450000 	    0.9103320000 	   -0.4772560000
C   	    1.5743370000 	    0.4151320000 	    0.1622860000
C   	    2.7013600000 	    0.8370910000 	   -0.5497870000
C   	    3.7271810000 	   -0.0543490000 	   -0.8288810000
C   	    3.6296400000 	   -1.3791070000 	   -0.4060170000
C   	    2.5060210000 	   -1.8082740000 	    0.2936450000
C   	    1.4794980000 	   -0.9144470000 	    0.5826260000
H   	   -1.0955200000 	    1.9790420000 	    1.6969820000
H   	   -0.3619960000 	    0.4295850000 	    2.1749570000
H   	   -3.0348690000 	   -2.6839770000 	    0.3676100000
H   	   -4.3361150000 	   -1.5364480000 	   -1.4464330000
H   	   -2.2555550000 	    1.9555100000 	   -0.7169990000
H   	    2.7492330000 	    1.8729090000 	   -0.8731620000
H   	    4.6038270000 	    0.2798160000 	   -1.3774580000
H   	    4.4314760000 	   -2.0796300000 	   -0.6259790000
H   	    2.4263940000 	   -2.8431020000 	    0.6157700000
H   	    0.5975980000 	   -1.2668920000 	    1.1123250000
