18
tauto -456.188523608
C   	    2.2737210000 	    1.3832720000 	    0.0039810000
C   	    2.2450350000 	   -0.1220950000 	   -0.0000760000
N   	    1.0231920000 	   -0.7895760000 	   -0.0014980000
C   	   -0.3017510000 	   -0.3549340000 	   -0.0008200000
N   	   -0.5591620000 	    0.9483350000 	   -0.0027600000
C   	   -1.8413320000 	    1.3277660000 	   -0.0020680000
C   	   -2.9130670000 	    0.4507970000 	    0.0002280000
C   	   -2.6289680000 	   -0.9153530000 	    0.0020250000
C   	   -1.3121620000 	   -1.3323020000 	    0.0015460000
O   	    3.2564860000 	   -0.7979650000 	   -0.0017200000
H   	    1.7513900000 	    1.7834140000 	    0.8758750000
H   	    1.7629190000 	    1.7869480000 	   -0.8731960000
H   	    3.3224830000 	    1.6833820000 	    0.0109330000
H   	    1.1629400000 	   -1.7915570000 	   -0.0031260000
H   	   -2.0084570000 	    2.4037250000 	   -0.0035460000
H   	   -3.9327730000 	    0.8215430000 	    0.0006080000
H   	   -3.4306450000 	   -1.6493690000 	    0.0039150000
H   	   -1.0568060000 	   -2.3885890000 	    0.0032060000
