19
tauto -457.171296448
N   	    3.3053120000 	   -0.7333980000 	   -0.0630130000
C   	    2.0243970000 	   -0.2218890000 	   -0.0078490000
N   	    1.0315090000 	   -1.0782780000 	    0.0008450000
C   	   -0.2426130000 	   -0.5859580000 	   -0.0025670000
C   	   -1.3219290000 	   -1.5053040000 	   -0.0022150000
C   	   -2.6186670000 	   -1.0575120000 	    0.0013990000
C   	   -2.9055390000 	    0.3273470000 	    0.0051360000
C   	   -1.8785690000 	    1.2366200000 	    0.0052700000
C   	   -0.5320740000 	    0.7999240000 	    0.0011320000
C   	    0.5772560000 	    1.6933230000 	    0.0000250000
C   	    1.8437080000 	    1.1997720000 	   -0.0086820000
H   	    3.3578810000 	   -1.7179290000 	    0.1575270000
H   	    4.0408150000 	   -0.1740330000 	    0.3416560000
H   	   -1.0823600000 	   -2.5647330000 	   -0.0054380000
H   	   -3.4372730000 	   -1.7731080000 	    0.0009440000
H   	   -3.9381800000 	    0.6658390000 	    0.0076990000
H   	   -2.0837620000 	    2.3057150000 	    0.0077070000
H   	    0.3986180000 	    2.7669880000 	    0.0009220000
H   	    2.7106980000 	    1.8550510000 	   -0.0257390000
