13
tauto -303.565236299
N   	   -2.2776320000 	   -0.0122820000 	   -0.0689210000
C   	   -0.8960410000 	    0.0027070000 	   -0.0111580000
N   	   -0.2944480000 	   -1.1885170000 	   -0.0008970000
C   	    1.0414700000 	   -1.2067270000 	    0.0029580000
C   	    1.8385550000 	   -0.0728930000 	    0.0076460000
C   	    1.1957630000 	    1.1662440000 	    0.0041800000
C   	   -0.1848990000 	    1.2161380000 	   -0.0083800000
H   	   -2.6783710000 	   -0.9067730000 	    0.1762130000
H   	   -2.7558120000 	    0.7794890000 	    0.3340280000
H   	    1.4941730000 	   -2.1975400000 	    0.0080470000
H   	    2.9205990000 	   -0.1542580000 	    0.0158020000
H   	    1.7721870000 	    2.0883730000 	    0.0078100000
H   	   -0.7173010000 	    2.1634850000 	   -0.0246450000
