18
tauto -473.166084843
N   	   -3.3859410000 	    0.5015720000 	   -0.0654700000
C   	   -2.0437020000 	    0.1845590000 	   -0.0105040000
C   	   -1.0367660000 	    1.1282200000 	   -0.0099470000
C   	    0.2864860000 	    0.6652010000 	   -0.0021670000
C   	    1.4392100000 	    1.5033010000 	   -0.0001630000
C   	    2.6871440000 	    0.9477140000 	    0.0030480000
C   	    2.8641030000 	   -0.4654740000 	    0.0052190000
C   	    1.7775030000 	   -1.2912150000 	    0.0037120000
C   	    0.4663140000 	   -0.7385700000 	   -0.0006470000
N   	   -0.5830030000 	   -1.6028770000 	    0.0008360000
N   	   -1.7944680000 	   -1.1589170000 	    0.0009570000
H   	   -3.6608570000 	    1.3790800000 	    0.3495080000
H   	   -3.9862770000 	   -0.2752000000 	    0.1754300000
H   	   -1.2586770000 	    2.1930000000 	   -0.0244690000
H   	    1.3070920000 	    2.5829170000 	   -0.0028340000
H   	    3.5635860000 	    1.5910820000 	    0.0037220000
H   	    3.8690300000 	   -0.8781870000 	    0.0077640000
H   	    1.8682440000 	   -2.3735560000 	    0.0053210000
