19
tauto -473.440440776
O   	   -1.2194960000 	    2.2136200000 	   -0.0030750000
C   	   -1.0467160000 	    1.0119620000 	   -0.0129520000
N   	    0.2088940000 	    0.4614060000 	    0.1417850000
C   	    1.4359450000 	    1.2377620000 	    0.0390390000
C   	    2.5074450000 	    0.1422870000 	    0.1523330000
N   	    1.7989510000 	   -1.0363150000 	   -0.3341500000
C   	    0.4468820000 	   -0.9079960000 	   -0.0757190000
N   	   -0.4084760000 	   -1.8440630000 	   -0.0393730000
C   	   -1.7529550000 	   -1.4022810000 	    0.3140240000
C   	   -2.1220260000 	   -0.0278150000 	   -0.2541680000
H   	    1.4973040000 	    1.9833930000 	    0.8340660000
H   	    1.4733760000 	    1.7552390000 	   -0.9263490000
H   	    2.8327430000 	    0.0250170000 	    1.1958620000
H   	    3.3838730000 	    0.3615980000 	   -0.4630650000
H   	    2.1830100000 	   -1.9519230000 	   -0.1504080000
H   	   -1.8434900000 	   -1.3796140000 	    1.4107080000
H   	   -2.4700280000 	   -2.1481180000 	   -0.0417500000
H   	   -3.0623610000 	    0.3497920000 	    0.1560020000
H   	   -2.2454960000 	   -0.0950550000 	   -1.3436430000
