25
tauto -610.778479043
N   	   -1.4877380000 	    2.8665050000 	    0.0016930000
C   	   -0.7022310000 	    1.7260300000 	    0.0126350000
N   	    0.5830380000 	    1.8872830000 	    0.0004480000
C   	    1.3955110000 	    0.7690230000 	   -0.0174570000
C   	    2.7874990000 	    0.9859540000 	   -0.0533290000
C   	    3.6656960000 	   -0.0742120000 	   -0.0413710000
C   	    3.1764890000 	   -1.3897830000 	    0.0097530000
C   	    1.8176540000 	   -1.6184500000 	    0.0427150000
C   	    0.8996040000 	   -0.5499230000 	    0.0264690000
C   	   -0.5469800000 	   -0.7261550000 	    0.0317460000
C   	   -1.1746500000 	   -1.9884080000 	    0.0479080000
C   	   -2.5476300000 	   -2.0998880000 	    0.0079060000
C   	   -3.3514110000 	   -0.9522070000 	   -0.0652240000
C   	   -2.7604440000 	    0.2920580000 	   -0.0764570000
C   	   -1.3601880000 	    0.4225940000 	   -0.0078860000
H   	   -0.9346980000 	    3.6984510000 	    0.1622690000
H   	   -2.3254070000 	    2.8376900000 	    0.5646290000
H   	    3.1335410000 	    2.0149650000 	   -0.0877110000
H   	    4.7374350000 	    0.1055880000 	   -0.0700860000
H   	    3.8681100000 	   -2.2279770000 	    0.0215930000
H   	    1.4572270000 	   -2.6427330000 	    0.0789240000
H   	   -0.5726930000 	   -2.8910790000 	    0.0853680000
H   	   -3.0094830000 	   -3.0837800000 	    0.0197210000
H   	   -4.4323540000 	   -1.0453570000 	   -0.1230880000
H   	   -3.3822980000 	    1.1779030000 	   -0.1710560000
