17
tauto -489.18456362
N   	    1.9852190000 	    1.8727440000 	   -0.0213930000
C   	    1.4164150000 	    0.6344380000 	   -0.0012120000
N   	    2.2433010000 	   -0.3946850000 	   -0.0129470000
N   	    1.7673300000 	   -1.6557430000 	   -0.0243310000
N   	    0.5159650000 	   -1.9171930000 	    0.0020950000
C   	   -0.3971220000 	   -0.8863450000 	    0.0121130000
C   	   -1.7719820000 	   -1.2147880000 	    0.0295710000
C   	   -2.7076200000 	   -0.2121420000 	    0.0172380000
C   	   -2.3082190000 	    1.1448000000 	   -0.0211720000
C   	   -0.9768620000 	    1.4794450000 	   -0.0357680000
C   	   -0.0027820000 	    0.4558330000 	   -0.0082290000
H   	    2.9841300000 	    1.8763840000 	    0.1317120000
H   	    1.4777550000 	    2.6520300000 	    0.3659600000
H   	   -2.0444660000 	   -2.2656510000 	    0.0483060000
H   	   -3.7667250000 	   -0.4550350000 	    0.0292900000
H   	   -3.0639940000 	    1.9249060000 	   -0.0454770000
H   	   -0.6803660000 	    2.5240580000 	   -0.0889980000
