12
tauto -319.565640346
N   	   -2.2521870000 	    0.0054350000 	   -0.0715950000
C   	   -0.8746740000 	    0.0190660000 	   -0.0087320000
C   	   -0.1496380000 	    1.2267030000 	   -0.0079280000
C   	    1.2175010000 	    1.1258620000 	    0.0038150000
C   	    1.7745690000 	   -0.1600830000 	    0.0055260000
N   	    1.0403950000 	   -1.2612480000 	    0.0035760000
N   	   -0.2826740000 	   -1.1764450000 	    0.0045790000
H   	   -2.7349600000 	    0.7801410000 	    0.3580600000
H   	   -2.6509630000 	   -0.8998100000 	    0.1376970000
H   	   -0.6626740000 	    2.1847430000 	   -0.0249650000
H   	    1.8533590000 	    2.0066530000 	    0.0066390000
H   	    2.8499510000 	   -0.3152040000 	    0.0105690000
