18
tauto -473.17164886
N   	    1.9071680000 	    1.9419050000 	   -0.0288930000
C   	    1.4062660000 	    0.6531490000 	    0.0002090000
N   	    2.2885720000 	   -0.3169490000 	   -0.0118220000
N   	    1.8824190000 	   -1.6118190000 	   -0.0347770000
C   	    0.6133710000 	   -1.8934480000 	   -0.0002100000
C   	   -0.4225920000 	   -0.9089400000 	    0.0198980000
C   	   -1.7989260000 	   -1.2251330000 	    0.0390880000
C   	   -2.7323670000 	   -0.2175530000 	    0.0208320000
C   	   -2.3240920000 	    1.1330920000 	   -0.0311370000
C   	   -0.9884980000 	    1.4581840000 	   -0.0486900000
C   	   -0.0175680000 	    0.4337010000 	   -0.0068920000
H   	    2.9099150000 	    1.9524720000 	    0.1111100000
H   	    1.4241010000 	    2.6170710000 	    0.5466020000
H   	    0.3589140000 	   -2.9525100000 	    0.0016190000
H   	   -2.1045940000 	   -2.2686200000 	    0.0638120000
H   	   -3.7926220000 	   -0.4556690000 	    0.0352040000
H   	   -3.0739860000 	    1.9186460000 	   -0.0666620000
H   	   -0.6824080000 	    2.4983480000 	   -0.1218170000
