31
tauto -801.45512881
O   	    1.1012410000 	   -2.3360820000 	   -0.7245590000
C   	    1.2056170000 	   -1.4371150000 	    0.0829260000
C   	    0.1776720000 	   -1.2555450000 	    1.1956090000
C   	   -1.2073100000 	   -1.0570610000 	    0.6264050000
C   	   -2.0232010000 	   -2.1329290000 	    0.3966770000
C   	   -3.3119710000 	   -1.9319380000 	   -0.1527400000
N   	   -3.8044290000 	   -0.7621530000 	   -0.4698580000
C   	   -3.0070470000 	    0.3270650000 	   -0.2615910000
C   	   -3.5327140000 	    1.5985140000 	   -0.6123840000
C   	   -2.7863500000 	    2.7327540000 	   -0.4423700000
C   	   -1.4757710000 	    2.6478000000 	    0.0859880000
C   	   -0.9424810000 	    1.4358600000 	    0.4380570000
C   	   -1.6964200000 	    0.2401590000 	    0.2776250000
C   	    2.3782790000 	   -0.4895660000 	    0.0046480000
N   	    2.4488600000 	    0.5006950000 	    0.8995960000
C   	    3.4890230000 	    1.3295150000 	    0.8227060000
C   	    4.4931770000 	    1.2112220000 	   -0.1343150000
C   	    4.4095720000 	    0.1786550000 	   -1.0614920000
C   	    3.3303840000 	   -0.6918020000 	   -0.9927840000
H   	    0.4712260000 	   -0.4427090000 	    1.8605480000
H   	    0.1933480000 	   -2.1875910000 	    1.7715230000
H   	   -1.6903080000 	   -3.1404600000 	    0.6303350000
H   	   -3.9565150000 	   -2.7932540000 	   -0.3290870000
H   	   -4.5393180000 	    1.6250760000 	   -1.0193840000
H   	   -3.1954710000 	    3.7025350000 	   -0.7139770000
H   	   -0.8888660000 	    3.5540810000 	    0.2120440000
H   	    0.0694530000 	    1.3858640000 	    0.8334480000
H   	    3.5212520000 	    2.1267290000 	    1.5629040000
H   	    5.3179620000 	    1.9174460000 	   -0.1482810000
H   	    5.1727790000 	    0.0552810000 	   -1.8252430000
H   	    3.2007520000 	   -1.5176620000 	   -1.6843090000
