19
tauto -494.21838173
O   	   -3.4693290000 	   -0.7688050000 	   -0.0005520000
N   	   -2.8757580000 	    0.5134820000 	   -0.0006180000
C   	   -1.6063830000 	    0.3752560000 	    0.0003310000
C   	   -0.6150910000 	    1.5233690000 	    0.0004410000
N   	   -0.9021980000 	   -0.8109940000 	    0.0013730000
C   	    0.4733200000 	   -0.5826440000 	    0.0004670000
C   	    0.7127570000 	    0.7981060000 	    0.0002290000
C   	    2.0101070000 	    1.2723740000 	   -0.0001970000
C   	    3.0703500000 	    0.3590260000 	   -0.0005350000
C   	    2.8158980000 	   -1.0081930000 	   -0.0004170000
C   	    1.5092930000 	   -1.5030160000 	    0.0001300000
H   	   -4.4101680000 	   -0.5592740000 	   -0.0016060000
H   	   -0.7542940000 	    2.1555520000 	    0.8836850000
H   	   -0.7543880000 	    2.1554750000 	   -0.8828610000
H   	   -1.3651200000 	   -1.7045960000 	   -0.0011530000
H   	    2.2069010000 	    2.3422830000 	   -0.0003330000
H   	    4.0948870000 	    0.7202510000 	   -0.0009000000
H   	    3.6459760000 	   -1.7101380000 	   -0.0007130000
H   	    1.3150180000 	   -2.5721980000 	    0.0003160000
