15
tauto -453.922979802
C   	   -2.4808310000 	    1.3309790000 	   -0.0071870000
C   	   -1.8562380000 	   -0.0445180000 	    0.0030760000
C   	   -0.3656120000 	   -0.0851850000 	    0.0034400000
C   	    0.5761970000 	    0.8940430000 	   -0.0033350000
C   	    1.8010930000 	    0.1643300000 	   -0.0067960000
N   	    3.0835620000 	    0.6769150000 	   -0.0826100000
N   	    1.5844660000 	   -1.1309370000 	    0.0057990000
O   	    0.2172260000 	   -1.2892820000 	    0.0014880000
O   	   -2.5030410000 	   -1.0668640000 	    0.0099670000
H   	   -2.1702590000 	    1.8860260000 	   -0.8993820000
H   	   -2.1616020000 	    1.9045510000 	    0.8701270000
H   	   -3.5666160000 	    1.2255820000 	   -0.0008330000
H   	    0.4360280000 	    1.9655160000 	   -0.0215030000
H   	    3.2324100000 	    1.5108110000 	    0.4678680000
H   	    3.7927070000 	   -0.0230710000 	    0.0945650000
