11
tauto -285.300480392
N   	   -2.0353200000 	   -0.0264630000 	   -0.0894700000
C   	   -0.6547910000 	    0.1044830000 	   -0.0104500000
C   	    0.1899340000 	    1.1708520000 	    0.0037490000
C   	    1.5136420000 	    0.6088100000 	    0.0089590000
C   	    1.3649440000 	   -0.7329840000 	    0.0048950000
O   	    0.0310210000 	   -1.0574460000 	   -0.0092090000
H   	   -2.5215800000 	    0.7971170000 	    0.2377700000
H   	   -2.3722720000 	   -0.8555200000 	    0.3839980000
H   	   -0.0857630000 	    2.2161450000 	    0.0041260000
H   	    2.4503300000 	    1.1499920000 	    0.0195940000
H   	    2.0459850000 	   -1.5698930000 	    0.0115610000
