22
tauto -496.439849929
C   	   -3.3818200000 	    0.4664260000 	    0.7690690000
C   	   -3.3805560000 	    0.5183880000 	   -0.6038520000
N   	   -2.2323090000 	   -0.0784220000 	   -1.0435770000
H   	   -1.9484550000 	   -0.2090780000 	   -2.0014800000
C   	   -1.4928050000 	   -0.5124480000 	    0.0296620000
N   	   -0.2661090000 	   -1.1629920000 	   -0.1906560000
C   	    0.9577460000 	   -0.4843780000 	   -0.0768910000
C   	    1.0267120000 	    0.9121220000 	   -0.0794380000
C   	    2.2619130000 	    1.5464500000 	   -0.0064000000
C   	    3.4419100000 	    0.8130580000 	    0.0707240000
C   	    3.3709230000 	   -0.5775270000 	    0.0741650000
C   	    2.1440040000 	   -1.2231830000 	   -0.0006130000
C   	   -2.1828060000 	   -0.1825410000 	    1.1722920000
H   	   -4.1571410000 	    0.8545210000 	    1.4165770000
H   	   -4.1009410000 	    0.9277760000 	   -1.2982910000
H   	   -0.2334950000 	   -2.1243160000 	    0.1181410000
H   	    0.1108090000 	    1.4947680000 	   -0.1271920000
H   	    2.2975810000 	    2.6334440000 	   -0.0062860000
H   	    4.4025970000 	    1.3166790000 	    0.1297670000
H   	    4.2808590000 	   -1.1698230000 	    0.1356750000
H   	    2.0981710000 	   -2.3111180000 	   -0.0032960000
H   	   -1.8523900000 	   -0.3811650000 	    2.1837110000
