15
tauto -508.000528319
O   	    3.2068170000 	   -0.5960120000 	   -0.1503870000
N   	    2.1873240000 	    0.0600720000 	   -0.0476290000
N   	    1.0898750000 	   -0.6412260000 	    0.3911560000
C   	   -0.2534950000 	   -0.2523370000 	    0.1741160000
N   	   -1.0395840000 	   -1.3075540000 	   -0.0143600000
C   	   -2.3448250000 	   -1.0843170000 	   -0.1701800000
C   	   -2.9105240000 	    0.1835480000 	   -0.1584550000
C   	   -2.0669130000 	    1.2706940000 	    0.0468850000
C   	   -0.7064960000 	    1.0655910000 	    0.2305110000
O   	    2.0681440000 	    1.2525900000 	   -0.2520650000
H   	    1.2558100000 	   -1.6376550000 	    0.3139230000
H   	   -2.9599580000 	   -1.9697770000 	   -0.3169120000
H   	   -3.9785530000 	    0.3128150000 	   -0.3002490000
H   	   -2.4656450000 	    2.2811790000 	    0.0758850000
H   	   -0.0211230000 	    1.8826940000 	    0.4055450000
