16
tauto -454.923228354
N   	    2.5574270000 	    1.2094540000 	   -0.0760410000
C   	    1.5885970000 	    0.2272260000 	   -0.0046130000
N   	    1.8931140000 	   -1.0397190000 	    0.0041970000
O   	    0.6884050000 	   -1.7543370000 	   -0.0030030000
C   	   -0.3279820000 	   -0.8719810000 	    0.0047670000
C   	    0.1600070000 	    0.4283500000 	   -0.0018920000
C   	   -0.7191160000 	    1.5167400000 	   -0.0129990000
C   	   -2.0755960000 	    1.2474270000 	   -0.0061340000
C   	   -2.5502710000 	   -0.0802370000 	    0.0067890000
C   	   -1.6919960000 	   -1.1657930000 	    0.0099520000
H   	    3.4898210000 	    0.8515680000 	    0.0887730000
H   	    2.3616320000 	    2.0246510000 	    0.4886400000
H   	   -0.3513910000 	    2.5395370000 	   -0.0359930000
H   	   -2.7900600000 	    2.0654860000 	   -0.0156830000
H   	   -3.6230420000 	   -0.2550640000 	    0.0109110000
H   	   -2.0498500000 	   -2.1900090000 	    0.0150590000
