15
tauto -308.58189046
O   	    2.2388760000 	   -0.0839690000 	   -0.3603730000
C   	    1.0951710000 	   -0.0030820000 	    0.0309790000
C   	    0.3872840000 	    1.3371490000 	    0.1544680000
C   	   -1.1116320000 	    1.2449390000 	    0.0285280000
C   	   -1.7688540000 	    0.1015430000 	   -0.1559280000
C   	   -1.0870020000 	   -1.2403380000 	   -0.2228640000
C   	    0.2868780000 	   -1.2096670000 	    0.4603150000
H   	    0.8117270000 	    2.0110350000 	   -0.5985780000
H   	    0.6623580000 	    1.7675490000 	    1.1293260000
H   	   -1.6612080000 	    2.1838720000 	    0.0697440000
H   	   -2.8509340000 	    0.1193340000 	   -0.2736960000
H   	   -0.9768050000 	   -1.5460260000 	   -1.2728080000
H   	   -1.7140200000 	   -2.0059050000 	    0.2486540000
H   	    0.8704690000 	   -2.1121250000 	    0.2610410000
H   	    0.1363320000 	   -1.1292490000 	    1.5463130000
