20
tauto -457.388864586
N   	    3.3390170000 	   -0.0446430000 	   -0.0671300000
C   	    1.9723560000 	    0.0882210000 	   -0.0114960000
N   	    1.2785980000 	    1.1787190000 	   -0.0717850000
C   	   -0.0379150000 	    0.7138330000 	   -0.0482170000
C   	   -1.2814590000 	    1.5422530000 	   -0.0847490000
C   	   -2.4719980000 	    0.6665880000 	    0.3437740000
C   	   -2.4525170000 	   -0.7182230000 	   -0.3230100000
C   	   -1.2171160000 	   -1.5461970000 	    0.0795940000
C   	   -0.0505670000 	   -0.6276140000 	    0.0300750000
O   	    1.2643130000 	   -1.0593180000 	    0.0567990000
H   	    3.8186560000 	    0.8201970000 	    0.1377650000
H   	    3.7057320000 	   -0.8393330000 	    0.4371910000
H   	   -1.4401050000 	    1.9393680000 	   -1.0968040000
H   	   -1.1808180000 	    2.4096880000 	    0.5775510000
H   	   -3.4136580000 	    1.1761200000 	    0.1099380000
H   	   -2.4444910000 	    0.5359520000 	    1.4342490000
H   	   -2.4514090000 	   -0.5889000000 	   -1.4134260000
H   	   -3.3643090000 	   -1.2699190000 	   -0.0680920000
H   	   -1.0850540000 	   -2.3940590000 	   -0.6033070000
H   	   -1.3470640000 	   -1.9662700000 	    1.0871240000
