19
tauto -548.370863659
C   	    3.6391970000 	   -0.0783370000 	    0.0029520000
N   	    3.1891690000 	    1.1183330000 	    0.0009550000
N   	    1.7973180000 	    1.0222340000 	   -0.0020550000
C   	    1.5394950000 	   -0.2485280000 	   -0.0014400000
N   	    0.3611680000 	   -0.9222030000 	   -0.0040450000
C   	   -0.9401010000 	   -0.3848340000 	   -0.0018630000
C   	   -2.0055200000 	   -1.2901630000 	   -0.0001900000
C   	   -3.3135600000 	   -0.8273870000 	    0.0018710000
C   	   -3.5753790000 	    0.5400800000 	    0.0022100000
C   	   -2.5105850000 	    1.4338780000 	    0.0004490000
C   	   -1.1917560000 	    0.9881150000 	   -0.0016380000
O   	    2.6517120000 	   -1.0211280000 	    0.0017020000
H   	    4.6619400000 	   -0.4231400000 	    0.0054620000
H   	    0.4431950000 	   -1.9273730000 	   -0.0012600000
H   	   -1.8067540000 	   -2.3607140000 	   -0.0005370000
H   	   -4.1315910000 	   -1.5430430000 	    0.0031740000
H   	   -4.5991170000 	    0.9035650000 	    0.0038600000
H   	   -2.6999400000 	    2.5042610000 	    0.0006590000
H   	   -0.3657670000 	    1.6899750000 	   -0.0030560000
