28
tauto -782.236964304
C   	    4.3208030000 	    0.1076180000 	    1.6155460000
O   	    3.3154340000 	   -0.6684210000 	    0.9540410000
C   	    2.7016590000 	   -0.0510490000 	   -0.0446560000
C   	    1.6434880000 	   -0.9526210000 	   -0.7149640000
C   	    0.7132800000 	   -0.2290040000 	   -1.6678780000
C   	   -0.3366670000 	    0.5519560000 	   -0.9031550000
C   	   -0.2143840000 	    1.9060680000 	   -0.7350790000
C   	   -1.2171740000 	    2.6143180000 	   -0.0291460000
N   	   -2.2820270000 	    2.0614400000 	    0.4917550000
C   	   -2.4187880000 	    0.7097600000 	    0.3510640000
C   	   -3.5693790000 	    0.1048510000 	    0.9217280000
C   	   -3.7629180000 	   -1.2467290000 	    0.8304350000
C   	   -2.8107720000 	   -2.0589250000 	    0.1685530000
C   	   -1.6929450000 	   -1.5036220000 	   -0.3961580000
C   	   -1.4703650000 	   -0.1007180000 	   -0.3268110000
O   	    1.5937740000 	   -2.1325590000 	   -0.4744410000
O   	    2.9303480000 	    1.0759540000 	   -0.4189150000
H   	    3.8781120000 	    1.0077750000 	    2.0489150000
H   	    5.1012530000 	    0.3966060000 	    0.9076140000
H   	    4.7236040000 	   -0.5387670000 	    2.3941110000
H   	    0.2544670000 	   -0.9765010000 	   -2.3198920000
H   	    1.3019500000 	    0.4629530000 	   -2.2757610000
H   	    0.6455090000 	    2.4371140000 	   -1.1334510000
H   	   -1.1181560000 	    3.6922980000 	    0.0977410000
H   	   -4.2749380000 	    0.7568730000 	    1.4281820000
H   	   -4.6454760000 	   -1.7036540000 	    1.2704810000
H   	   -2.9670230000 	   -3.1329270000 	    0.1124160000
H   	   -0.9565780000 	   -2.1430590000 	   -0.8750020000
