26
tauto -628.019195656
C   	    2.8610050000 	    1.9658130000 	   -0.0993490000
N   	    2.2256750000 	    0.6771750000 	    0.0322820000
C   	    2.8339700000 	   -0.5593170000 	    0.0166890000
N   	    4.2107150000 	   -0.6525170000 	   -0.0472290000
N   	    2.0192410000 	   -1.5743920000 	    0.0053440000
C   	    0.7512160000 	   -0.9968970000 	    0.0013810000
C   	   -0.4877540000 	   -1.5852990000 	   -0.0158490000
C   	   -1.6411070000 	   -0.7611130000 	   -0.0075510000
C   	   -2.9499770000 	   -1.3247860000 	   -0.0279280000
C   	   -4.0647430000 	   -0.5340010000 	   -0.0209280000
C   	   -3.9353110000 	    0.8787960000 	    0.0080230000
C   	   -2.6958160000 	    1.4548830000 	    0.0283730000
C   	   -1.5125210000 	    0.6619670000 	    0.0209150000
C   	   -0.2257950000 	    1.2594870000 	    0.0440310000
C   	    0.8593360000 	    0.4257240000 	    0.0310000000
H   	    3.8417080000 	    1.8350000000 	   -0.5646480000
H   	    2.9794400000 	    2.4670250000 	    0.8686100000
H   	    2.2548100000 	    2.6013590000 	   -0.7521200000
H   	    4.7095840000 	   -0.0689900000 	    0.6121570000
H   	    4.5025710000 	   -1.6194540000 	    0.0170930000
H   	   -0.5862520000 	   -2.6675410000 	   -0.0383560000
H   	   -3.0438810000 	   -2.4088530000 	   -0.0503700000
H   	   -5.0540730000 	   -0.9839970000 	   -0.0377580000
H   	   -4.8268290000 	    1.5009310000 	    0.0137230000
H   	   -2.5926340000 	    2.5383840000 	    0.0509110000
H   	   -0.1288770000 	    2.3427260000 	    0.0751340000
