20
tauto -474.418506004
C   	   -1.8234900000 	    1.8780940000 	   -0.0746000000
N   	   -1.0909020000 	    0.6388200000 	    0.0270230000
C   	   -1.6087980000 	   -0.6336860000 	    0.0127090000
N   	   -2.9811390000 	   -0.8292340000 	   -0.0490520000
N   	   -0.7146590000 	   -1.5830880000 	   -0.0036920000
C   	    0.4992340000 	   -0.9068160000 	   -0.0078530000
C   	    0.2885890000 	    0.4830020000 	    0.0251280000
C   	    1.3303760000 	    1.4036220000 	    0.0429470000
C   	    2.6211820000 	    0.8879390000 	    0.0194080000
C   	    2.8518800000 	   -0.4956350000 	   -0.0140090000
C   	    1.8017620000 	   -1.4047640000 	   -0.0270090000
H   	   -2.7949700000 	    1.6793320000 	   -0.5348420000
H   	   -1.2732060000 	    2.5713520000 	   -0.7174920000
H   	   -1.9726820000 	    2.3486130000 	    0.9043850000
H   	   -3.5014520000 	   -0.3428270000 	    0.6712190000
H   	   -3.1847740000 	   -1.8209980000 	   -0.0275200000
H   	    1.1513890000 	    2.4756550000 	    0.0765180000
H   	    3.4668270000 	    1.5706530000 	    0.0294500000
H   	    3.8754920000 	   -0.8611670000 	   -0.0292130000
H   	    1.9758630000 	   -2.4766430000 	   -0.0527880000
