13
tauto -340.659012969
C   	   -2.0786060000 	   -0.6408380000 	   -0.0135760000
C   	   -0.5987640000 	   -0.4441880000 	   -0.0050280000
C   	    0.1242890000 	    0.7037580000 	    0.0054430000
N   	   -0.1721010000 	    2.0584910000 	    0.0905010000
O   	    1.4476950000 	    0.3817290000 	    0.0098850000
C   	    1.4568320000 	   -0.9749370000 	   -0.0010220000
N   	    0.2935850000 	   -1.5180210000 	    0.0013070000
H   	   -2.6031810000 	    0.2996060000 	   -0.2175610000
H   	   -2.4407260000 	   -1.0246490000 	    0.9467060000
H   	   -2.3648430000 	   -1.3605360000 	   -0.7867110000
H   	   -1.1693370000 	    2.2268350000 	    0.0619500000
H   	    0.2963770000 	    2.6091420000 	   -0.6202040000
H   	    2.4272550000 	   -1.4502900000 	   -0.0208200000
