26
tauto -628.023891292
C   	   -3.4695810000 	    1.2763230000 	   -0.0857760000
N   	   -2.3233530000 	    0.4037040000 	    0.0131150000
C   	   -2.3312250000 	   -0.9663800000 	    0.0156400000
N   	   -3.5313320000 	   -1.6661650000 	   -0.0481010000
N   	   -1.1392300000 	   -1.5051390000 	    0.0131800000
C   	   -0.2789330000 	   -0.4224920000 	    0.0055890000
C   	   -0.9859990000 	    0.7713120000 	    0.0195470000
C   	   -0.3628800000 	    2.0372120000 	    0.0336510000
C   	    1.0057320000 	    2.0594130000 	    0.0247760000
C   	    1.7827130000 	    0.8567610000 	    0.0086700000
C   	    3.2012400000 	    0.8953190000 	    0.0027050000
C   	    3.9391980000 	   -0.2606000000 	   -0.0119430000
C   	    3.2926980000 	   -1.5185110000 	   -0.0211170000
C   	    1.9230960000 	   -1.5936620000 	   -0.0149850000
C   	    1.1441240000 	   -0.4123980000 	   -0.0003430000
H   	   -4.2949800000 	    0.7218610000 	   -0.5398070000
H   	   -3.2256390000 	    2.1247830000 	   -0.7313400000
H   	   -3.7805990000 	    1.6560860000 	    0.8943320000
H   	   -4.1731920000 	   -1.4437600000 	    0.7042360000
H   	   -3.3382370000 	   -2.6605520000 	   -0.0565070000
H   	   -0.9414500000 	    2.9576440000 	    0.0520470000
H   	    1.5322620000 	    3.0111330000 	    0.0325680000
H   	    3.6974350000 	    1.8641630000 	    0.0099070000
H   	    5.0253180000 	   -0.2131510000 	   -0.0167160000
H   	    3.8877280000 	   -2.4284240000 	   -0.0328880000
H   	    1.4076500000 	   -2.5503650000 	   -0.0216750000
