22
tauto -587.683810556
C   	    4.6154960000 	   -0.2082790000 	    0.1013060000
N   	    3.3336360000 	   -0.8655550000 	   -0.0900380000
C   	    2.2179140000 	   -0.0914120000 	   -0.0362650000
N   	    2.1315400000 	    1.2012830000 	   -0.0428580000
N   	    0.7679720000 	    1.4774720000 	   -0.0458780000
C   	    0.1494410000 	    0.3501400000 	   -0.0259240000
C   	   -1.2905090000 	    0.0936730000 	   -0.0064000000
C   	   -2.1684890000 	    1.1808190000 	    0.0273870000
C   	   -3.5386450000 	    0.9611190000 	    0.0441190000
C   	   -4.0410900000 	   -0.3388480000 	    0.0278810000
C   	   -3.1665810000 	   -1.4206660000 	   -0.0056610000
C   	   -1.7924300000 	   -1.2084830000 	   -0.0231440000
O   	    1.0177980000 	   -0.7127090000 	   -0.0204080000
H   	    5.4096350000 	   -0.9370150000 	   -0.0735740000
H   	    4.7248230000 	    0.2229510000 	    1.1047370000
H   	    4.7092390000 	    0.5993580000 	   -0.6277830000
H   	    3.2259340000 	   -1.7854880000 	    0.3108940000
H   	   -1.7590330000 	    2.1868990000 	    0.0399350000
H   	   -4.2194580000 	    1.8077910000 	    0.0701820000
H   	   -5.1147580000 	   -0.5075160000 	    0.0413370000
H   	   -3.5549510000 	   -2.4356380000 	   -0.0196060000
H   	   -1.1064910000 	   -2.0504460000 	   -0.0512290000
