9
tauto -317.325050216
N   	    2.0286310000 	    0.0365070000 	   -0.0843370000
C   	    0.6516920000 	    0.0033300000 	   -0.0065990000
N   	   -0.0423230000 	   -1.1016570000 	    0.0115380000
O   	   -1.3516830000 	   -0.7104750000 	    0.0078100000
N   	   -1.4704260000 	    0.6306340000 	    0.0034400000
C   	   -0.2601100000 	    1.1021980000 	   -0.0088050000
H   	    2.4590620000 	   -0.8591070000 	    0.1044890000
H   	    2.4631770000 	    0.7850760000 	    0.4361350000
H   	   -0.0694440000 	    2.1662750000 	   -0.0251750000
