9
tauto -317.372649534
N   	    1.9930530000 	    0.0513860000 	   -0.0743850000
C   	    0.6276360000 	   -0.0076580000 	   -0.0099940000
N   	   -0.0495670000 	   -1.1288140000 	    0.0036970000
O   	   -1.3762910000 	   -0.6854790000 	    0.0063760000
C   	   -1.3293600000 	    0.6368910000 	    0.0044990000
N   	   -0.1390370000 	    1.1383470000 	   -0.0042140000
H   	    2.4738310000 	   -0.7895870000 	    0.2090760000
H   	    2.3893900000 	    0.9058910000 	    0.2867620000
H   	   -2.2736910000 	    1.1657010000 	    0.0104410000
