8
tauto -333.381216175
N   	    1.9426770000 	    0.0076330000 	   -0.0531820000
C   	    0.5975800000 	    0.0606740000 	   -0.0051700000
N   	   -0.1557960000 	    1.1333380000 	    0.0026680000
N   	   -1.4172980000 	    0.6306790000 	    0.0055270000
N   	   -1.4579300000 	   -0.6138830000 	    0.0037410000
O   	   -0.0994600000 	   -1.0602570000 	   -0.0033230000
H   	    2.4318190000 	    0.8673710000 	    0.1410290000
H   	    2.3968040000 	   -0.8537370000 	    0.2053000000
