12
tauto -352.843452486
C   	    1.6273840000 	   -1.2156880000 	   -0.0237140000
N   	    0.3365380000 	   -0.5689650000 	    0.0114340000
N   	   -0.8235200000 	   -1.2650710000 	    0.0218980000
N   	   -1.7651310000 	   -0.3987990000 	    0.0020880000
N   	   -1.2816360000 	    0.8646670000 	   -0.0026290000
C   	    0.0277090000 	    0.7378430000 	    0.0030520000
N   	    0.9649890000 	    1.7487930000 	   -0.0768890000
H   	    1.4845700000 	   -2.2230900000 	   -0.4153970000
H   	    2.0684640000 	   -1.2759120000 	    0.9760650000
H   	    2.2885500000 	   -0.6516640000 	   -0.6872440000
H   	    0.5131910000 	    2.6548960000 	   -0.0625560000
H   	    1.6959900000 	    1.6984680000 	    0.6217920000
