9
tauto -317.344472592
N   	   -1.9946930000 	    0.0061720000 	   -0.0706440000
C   	   -0.6331950000 	    0.0823280000 	   -0.0092460000
C   	    0.2583990000 	    1.1211990000 	   -0.0004670000
N   	    1.5017420000 	    0.5540630000 	    0.0081610000
N   	    1.4424500000 	   -0.6943330000 	    0.0071390000
O   	    0.0485400000 	   -1.0529860000 	   -0.0036350000
H   	   -2.4960660000 	    0.8222080000 	    0.2453520000
H   	   -2.3938980000 	   -0.8691970000 	    0.2356790000
H   	    0.1039290000 	    2.1883980000 	   -0.0062560000
