15
tauto -392.139412426
C   	    2.4321790000 	   -0.1448320000 	    0.4624390000
N   	    1.4610380000 	   -0.6197280000 	   -0.5241070000
C   	    0.1224730000 	   -0.5062860000 	   -0.1932390000
N   	   -0.7449600000 	   -1.4874840000 	   -0.0588590000
N   	   -1.9324670000 	   -0.8931180000 	    0.1892800000
N   	   -1.8201270000 	    0.3826020000 	    0.2258500000
N   	   -0.5231140000 	    0.6617620000 	   -0.0247260000
C   	   -0.0522050000 	    2.0211570000 	   -0.1630980000
H   	    3.4362270000 	   -0.3153700000 	    0.0675190000
H   	    2.3386720000 	   -0.6469090000 	    1.4349510000
H   	    2.3172730000 	    0.9318660000 	    0.6149920000
H   	    1.6385350000 	   -1.5826660000 	   -0.7866980000
H   	   -0.9047020000 	    2.6409020000 	   -0.4426660000
H   	    0.7040850000 	    2.0524360000 	   -0.9515360000
H   	    0.3726330000 	    2.3912560000 	    0.7747620000
