18
tauto -435.334455734
C   	    2.3830140000 	   -1.1090990000 	   -0.0249850000
C   	    1.4850390000 	    0.1098630000 	    0.0191840000
N   	    0.1304500000 	   -0.1456370000 	    0.0083190000
C   	   -0.4746710000 	   -1.4691500000 	   -0.1257060000
C   	   -1.9367990000 	   -1.1896420000 	    0.2321300000
N   	   -2.0757950000 	    0.1839180000 	   -0.2093370000
C   	   -0.8721510000 	    0.8660860000 	   -0.0528280000
N   	   -0.7753310000 	    2.1245540000 	    0.0049870000
O   	    1.9373420000 	    1.2397370000 	    0.0769130000
H   	    2.1461860000 	   -1.7569880000 	   -0.8754550000
H   	    2.2790490000 	   -1.7025140000 	    0.8901260000
H   	    3.4126830000 	   -0.7606810000 	   -0.1073430000
H   	   -0.0149900000 	   -2.1933720000 	    0.5512290000
H   	   -0.3841210000 	   -1.8365700000 	   -1.1558570000
H   	   -2.0971790000 	   -1.3090870000 	    1.3144680000
H   	   -2.6209700000 	   -1.8567890000 	   -0.2992170000
H   	   -2.8843680000 	    0.7161030000 	    0.0785840000
H   	    0.2031280000 	    2.3938170000 	    0.0736060000
