21
tauto -474.644003416
C   	   -3.9242100000 	    0.2203430000 	    0.1103200000
C   	   -2.7372200000 	   -0.7173040000 	   -0.0577740000
C   	   -1.4118580000 	    0.0257030000 	   -0.0249930000
N   	   -0.3093730000 	   -0.7934190000 	   -0.0859800000
C   	    1.0284660000 	   -0.4006400000 	   -0.0542270000
N   	    1.9618380000 	   -1.2529330000 	    0.1384110000
C   	    3.2021970000 	   -0.4768110000 	    0.0324370000
C   	    2.7764080000 	    1.0079960000 	    0.1222790000
N   	    1.3784030000 	    0.9098980000 	   -0.2899850000
O   	   -1.3358470000 	    1.2412600000 	    0.0402960000
H   	   -4.8633740000 	   -0.3383860000 	    0.0588090000
H   	   -3.9270640000 	    0.9837070000 	   -0.6716130000
H   	   -3.8791610000 	    0.7370570000 	    1.0727980000
H   	   -2.7977610000 	   -1.2567560000 	   -1.0122340000
H   	   -2.7285190000 	   -1.4845700000 	    0.7274710000
H   	   -0.4323800000 	   -1.7955480000 	   -0.0435500000
H   	    3.6804230000 	   -0.6865960000 	   -0.9340020000
H   	    3.9078840000 	   -0.7603480000 	    0.8188760000
H   	    3.3466360000 	    1.6605010000 	   -0.5446730000
H   	    2.8643280000 	    1.3921080000 	    1.1491450000
H   	    0.6969880000 	    1.6182120000 	   -0.0487690000
