19
tauto -440.148832681
C   	    3.4829610000 	   -0.5898940000 	    0.0171960000
C   	    2.1689160000 	    0.1704630000 	   -0.0080090000
N   	    1.0633850000 	   -0.6463890000 	   -0.0210340000
C   	   -0.3009260000 	   -0.2881760000 	   -0.0096880000
C   	   -0.7464330000 	    1.0365460000 	   -0.0068380000
C   	   -2.1141900000 	    1.2935870000 	    0.0032020000
C   	   -3.0452050000 	    0.2607900000 	    0.0101430000
C   	   -2.5951610000 	   -1.0563280000 	    0.0069250000
C   	   -1.2345340000 	   -1.3297770000 	   -0.0029330000
O   	    2.1205850000 	    1.3863110000 	    0.0000540000
H   	    3.5070530000 	   -1.3878060000 	   -0.7323920000
H   	    3.6394460000 	   -1.0415180000 	    1.0030860000
H   	    4.2908270000 	    0.1155590000 	   -0.1783220000
H   	    1.2429600000 	   -1.6398210000 	   -0.0240280000
H   	   -0.0243900000 	    1.8419460000 	   -0.0119630000
H   	   -2.4517330000 	    2.3271120000 	    0.0053950000
H   	   -4.1097990000 	    0.4776020000 	    0.0179770000
H   	   -3.3056100000 	   -1.8790690000 	    0.0122430000
H   	   -0.8897060000 	   -2.3630340000 	   -0.0051830000
