24
tauto -513.937649831
C   	    3.5031560000 	   -0.7287830000 	    0.0727720000
C   	    2.1455060000 	   -0.0793300000 	    0.2525170000
N   	    1.1697880000 	   -0.5924390000 	   -0.5885270000
C   	   -0.2251070000 	   -0.4576860000 	   -0.3528650000
N   	   -0.8821560000 	   -1.5523250000 	   -0.2522930000
C   	   -2.3198420000 	   -1.3985130000 	   -0.1181710000
C   	   -2.6590680000 	   -0.2230480000 	    0.7962780000
C   	   -2.0655500000 	    1.0485860000 	    0.2049120000
N   	   -0.7241070000 	    0.8131020000 	   -0.3131770000
C   	    0.0020120000 	    1.9954670000 	   -0.7230510000
O   	    1.9409460000 	    0.8103930000 	    1.0529380000
H   	    3.7354430000 	   -0.8984320000 	   -0.9830580000
H   	    3.5177160000 	   -1.6968680000 	    0.5860690000
H   	    4.2611080000 	   -0.0854420000 	    0.5207680000
H   	    1.3634230000 	   -1.5102890000 	   -0.9693410000
H   	   -2.7338070000 	   -2.3313390000 	    0.2786480000
H   	   -2.7796630000 	   -1.2403700000 	   -1.1073010000
H   	   -2.2252350000 	   -0.4120700000 	    1.7849510000
H   	   -3.7400570000 	   -0.1007840000 	    0.9226790000
H   	   -2.0121980000 	    1.8412090000 	    0.9640490000
H   	   -2.7014690000 	    1.4245290000 	   -0.6111650000
H   	   -0.6656830000 	    2.6279050000 	   -1.3222370000
H   	    0.8546610000 	    1.7158220000 	   -1.3427030000
H   	    0.3668810000 	    2.5644600000 	    0.1387540000
