14
tauto -357.93788997
C   	    2.4401010000 	   -0.7184920000 	   -0.0283500000
C   	    1.1781340000 	    0.1180210000 	    0.0070460000
N   	    0.0182860000 	   -0.6203220000 	   -0.0743900000
C   	   -1.3302770000 	   -0.1757960000 	   -0.0148720000
N   	   -1.4953570000 	    1.1693000000 	   -0.1473860000
N   	   -2.3252080000 	   -0.9678940000 	    0.1040150000
O   	    1.2063070000 	    1.3314840000 	    0.1216830000
H   	    2.4041940000 	   -1.4756300000 	   -0.8179370000
H   	    2.5751010000 	   -1.2287830000 	    0.9316520000
H   	    3.2893550000 	   -0.0557020000 	   -0.1954770000
H   	    0.1216440000 	   -1.6232110000 	   -0.1226160000
H   	   -0.6990540000 	    1.7657580000 	    0.0323230000
H   	   -2.4201710000 	    1.4965210000 	    0.0830930000
H   	   -2.0333230000 	   -1.9408060000 	    0.1568810000
