26
tauto -631.835616039
O   	   -0.2150190000 	   -1.8444450000 	   -0.2283510000
C   	   -0.4754460000 	   -0.6601730000 	   -0.0942820000
C   	   -1.9005700000 	   -0.1774120000 	   -0.0487920000
C   	   -2.2913110000 	    1.1101700000 	   -0.4215730000
C   	   -3.6315330000 	    1.4795960000 	   -0.3636260000
C   	   -4.5874480000 	    0.5655910000 	    0.0685170000
C   	   -4.2037840000 	   -0.7246230000 	    0.4272350000
C   	   -2.8673000000 	   -1.0965340000 	    0.3604670000
N   	    0.4698590000 	    0.3242900000 	    0.0448130000
C   	    1.8752480000 	    0.1997770000 	    0.0378530000
C   	    2.5405950000 	   -1.0024160000 	   -0.2163550000
C   	    3.9323590000 	   -1.0228760000 	   -0.2111770000
C   	    4.6722890000 	    0.1268190000 	    0.0418470000
C   	    4.0035250000 	    1.3212670000 	    0.2937760000
C   	    2.6163010000 	    1.3588160000 	    0.2914160000
H   	   -1.5617510000 	    1.8244800000 	   -0.7981180000
H   	   -3.9292560000 	    2.4803970000 	   -0.6650880000
H   	   -5.6338880000 	    0.8556550000 	    0.1169440000
H   	   -4.9495950000 	   -1.4433030000 	    0.7562520000
H   	   -2.5473770000 	   -2.1018210000 	    0.6182870000
H   	    0.1252040000 	    1.2419560000 	    0.2834940000
H   	    1.9688330000 	   -1.9005120000 	   -0.4069220000
H   	    4.4416360000 	   -1.9628950000 	   -0.4083970000
H   	    5.7582980000 	    0.0938780000 	    0.0434170000
H   	    4.5617650000 	    2.2323260000 	    0.4935940000
H   	    2.0997200000 	    2.2973600000 	    0.4878020000
