23
tauto -662.959391212
C   	   -4.9280300000 	    0.3218090000 	   -0.0001750000
O   	   -3.8034400000 	   -0.5614360000 	    0.0002470000
C   	   -2.6121550000 	    0.0501400000 	    0.0004040000
N   	   -1.6095500000 	   -0.8793410000 	    0.0003040000
C   	   -0.2522080000 	   -0.5875840000 	    0.0001510000
N   	    0.6626810000 	   -1.5129660000 	   -0.0001110000
C   	    1.8538840000 	   -0.7947930000 	   -0.0002120000
C   	    3.1722500000 	   -1.2539810000 	   -0.0004410000
C   	    4.1910400000 	   -0.3128310000 	   -0.0003650000
C   	    3.9152690000 	    1.0647520000 	   -0.0000230000
C   	    2.6115540000 	    1.5410590000 	    0.0002180000
C   	    1.5971080000 	    0.5884660000 	   -0.0000030000
N   	    0.2145520000 	    0.6922100000 	    0.0004050000
H   	   -0.3841150000 	    1.5062550000 	   -0.0001690000
O   	   -2.4514820000 	    1.2559960000 	   -0.0001860000
H   	   -5.8041960000 	   -0.3260470000 	   -0.0005570000
H   	   -4.9167490000 	    0.9541960000 	   -0.8909460000
H   	   -4.9174730000 	    0.9540430000 	    0.8907220000
H   	   -1.8457230000 	   -1.8610800000 	   -0.0004830000
H   	    3.3790450000 	   -2.3202130000 	   -0.0006650000
H   	    5.2260090000 	   -0.6448050000 	   -0.0005820000
H   	    4.7392780000 	    1.7733440000 	    0.0001210000
H   	    2.3972550000 	    2.6062850000 	    0.0005620000
