19
tauto -440.129343156
C   	   -2.0024080000 	    1.2396740000 	   -0.8558420000
C   	   -2.1881460000 	   -0.0291740000 	   -0.0547270000
C   	   -1.1466910000 	   -0.3258190000 	    1.0243630000
C   	    0.2733150000 	   -0.1988970000 	    0.5269310000
N   	    0.8548850000 	    0.9982390000 	    0.6628900000
C   	    2.0990160000 	    1.1424470000 	    0.2032850000
C   	    2.8219860000 	    0.1236900000 	   -0.4068270000
C   	    2.2114140000 	   -1.1172100000 	   -0.5488690000
C   	    0.9163830000 	   -1.2819700000 	   -0.0758370000
O   	   -3.1178000000 	   -0.7823530000 	   -0.2436930000
H   	   -1.6396070000 	    2.0593860000 	   -0.2285200000
H   	   -2.9430920000 	    1.5024510000 	   -1.3432480000
H   	   -1.2401310000 	    1.0701050000 	   -1.6259370000
H   	   -1.3523180000 	   -1.3283200000 	    1.4089490000
H   	   -1.2898440000 	    0.4012960000 	    1.8325180000
H   	    2.5415110000 	    2.1287870000 	    0.3350050000
H   	    3.8339860000 	    0.3015180000 	   -0.7578070000
H   	    2.7357880000 	   -1.9450960000 	   -1.0193440000
H   	    0.4027020000 	   -2.2354220000 	   -0.1671670000
