24
tauto -697.156085271
C   	    2.5351950000 	    1.5787620000 	    1.1454430000
N   	    2.7660050000 	    0.3869390000 	    0.3517590000
N   	    4.0111610000 	    0.0361750000 	   -0.0236270000
N   	    3.9117500000 	   -1.0735940000 	   -0.6592080000
N   	    2.6282870000 	   -1.4767140000 	   -0.7402470000
C   	    1.9327140000 	   -0.5553910000 	   -0.1127960000
N   	    0.5625400000 	   -0.6318330000 	    0.1043410000
C   	   -0.3005330000 	    0.4243900000 	   -0.1633410000
C   	   -1.7567340000 	    0.1057360000 	   -0.0488600000
C   	   -2.2438480000 	   -0.9815630000 	    0.6800430000
C   	   -3.6129330000 	   -1.2145810000 	    0.7488790000
C   	   -4.4973690000 	   -0.3652030000 	    0.0902870000
C   	   -4.0146450000 	    0.7261510000 	   -0.6282700000
C   	   -2.6483270000 	    0.9652630000 	   -0.6924670000
O   	    0.1129780000 	    1.5283220000 	   -0.4611520000
H   	    2.1518720000 	    2.3824940000 	    0.5173550000
H   	    3.4911880000 	    1.8500670000 	    1.5933320000
H   	    1.8068070000 	    1.3534960000 	    1.9277070000
H   	    0.2026580000 	   -1.5698100000 	   -0.0130240000
H   	   -1.5652920000 	   -1.6318650000 	    1.2274180000
H   	   -3.9892470000 	   -2.0564760000 	    1.3232990000
H   	   -5.5669910000 	   -0.5503800000 	    0.1437110000
H   	   -4.7053300000 	    1.3924610000 	   -1.1375920000
H   	   -2.2488040000 	    1.8152520000 	   -1.2376270000
