27
tauto -740.347571068
C   	   -5.7811710000 	   -0.4579360000 	   -0.0012100000
O   	   -4.4608630000 	   -1.0044640000 	   -0.0326250000
C   	   -3.4780360000 	   -0.0933440000 	   -0.0041050000
N   	   -2.2623190000 	   -0.7098510000 	   -0.0320560000
C   	   -1.0398340000 	   -0.0429310000 	   -0.0102890000
N   	    0.1117020000 	   -0.6543940000 	   -0.0276020000
C   	    1.0506350000 	    0.3632870000 	    0.0018620000
C   	    2.4931050000 	    0.0649460000 	   -0.0020170000
C   	    2.9271970000 	   -1.2625400000 	    0.0418470000
C   	    4.2845790000 	   -1.5621810000 	    0.0432930000
C   	    5.2302930000 	   -0.5419080000 	    0.0008650000
C   	    4.8062570000 	    0.7836850000 	   -0.0449650000
C   	    3.4495930000 	    1.0839860000 	   -0.0476640000
C   	    0.4225800000 	    1.5791180000 	    0.0380440000
N   	   -0.9304330000 	    1.3040480000 	    0.0287430000
H   	   -1.7230640000 	    1.9312130000 	    0.0506500000
O   	   -3.6505280000 	    1.1114460000 	    0.0399030000
H   	   -5.9382920000 	    0.1085210000 	    0.9197210000
H   	   -6.4512300000 	   -1.3164450000 	   -0.0410830000
H   	   -5.9449100000 	    0.1977560000 	   -0.8595150000
H   	   -2.2159100000 	   -1.7175210000 	   -0.0654720000
H   	    2.1818150000 	   -2.0516400000 	    0.0745660000
H   	    4.6057570000 	   -2.6004890000 	    0.0787310000
H   	    6.2917610000 	   -0.7765440000 	    0.0023380000
H   	    5.5363120000 	    1.5886410000 	   -0.0808910000
H   	    3.1326450000 	    2.1240640000 	   -0.0901550000
H   	    0.7924000000 	    2.5928760000 	    0.0753340000
