44
tauto -1050.17474192
C   	    1.6882850000 	    3.1027610000 	    0.0745070000
C   	    0.2379850000 	    3.3113610000 	   -0.3652240000
C   	   -0.4680640000 	    2.0069310000 	   -0.7461780000
C   	   -0.7918110000 	    1.1509390000 	    0.4804180000
N   	   -1.1143440000 	   -0.2303620000 	    0.1123550000
C   	   -0.2385050000 	   -1.1702150000 	   -0.3073890000
N   	    1.1373830000 	   -0.9488620000 	   -0.4597100000
C   	    1.9964540000 	   -0.5903380000 	    0.5634380000
C   	    3.4448460000 	   -0.5410660000 	    0.1832320000
C   	    3.8757470000 	   -0.3523440000 	   -1.1317530000
C   	    5.2359250000 	   -0.2971560000 	   -1.4174660000
C   	    6.1680810000 	   -0.4326310000 	   -0.3930770000
C   	    5.7405920000 	   -0.6095430000 	    0.9211690000
C   	    4.3829910000 	   -0.6552350000 	    1.2099030000
O   	    1.6082540000 	   -0.3112720000 	    1.6838250000
N   	   -0.8084680000 	   -2.2967200000 	   -0.6869490000
C   	   -2.1370440000 	   -2.0844270000 	   -0.4949600000
C   	   -2.3654720000 	   -0.8228150000 	    0.0007970000
C   	   -3.6333400000 	   -0.1745350000 	    0.3439000000
O   	   -4.6595340000 	   -1.0153870000 	    0.1277930000
C   	   -5.9707660000 	   -0.4970410000 	    0.4088020000
C   	   -6.4847400000 	    0.3552700000 	   -0.7359930000
O   	   -3.7701240000 	    0.9592890000 	    0.7596450000
H   	    2.1684790000 	    4.0567750000 	    0.3161050000
H   	    2.2726710000 	    2.6295850000 	   -0.7251650000
H   	    1.7662090000 	    2.4617110000 	    0.9601200000
H   	    0.2173890000 	    3.9904060000 	   -1.2263110000
H   	   -0.3255880000 	    3.8143240000 	    0.4327010000
H   	    0.1753550000 	    1.4382660000 	   -1.4307050000
H   	   -1.4014160000 	    2.2166900000 	   -1.2829960000
H   	   -1.6600310000 	    1.5495790000 	    1.0040610000
H   	    0.0434620000 	    1.1046040000 	    1.1798130000
H   	    1.5316380000 	   -1.5081880000 	   -1.2043180000
H   	    3.1533160000 	   -0.2139530000 	   -1.9331120000
H   	    5.5672870000 	   -0.1406090000 	   -2.4404300000
H   	    7.2307860000 	   -0.3915150000 	   -0.6176340000
H   	    6.4685800000 	   -0.7079600000 	    1.7218720000
H   	    4.0253540000 	   -0.7781630000 	    2.2280580000
H   	   -2.8759650000 	   -2.8436880000 	   -0.7129630000
H   	   -5.9339250000 	    0.0724790000 	    1.3410740000
H   	   -6.5857140000 	   -1.3882280000 	    0.5536060000
H   	   -5.8693630000 	    1.2515060000 	   -0.8495410000
H   	   -7.5153840000 	    0.6664830000 	   -0.5354270000
H   	   -6.4708760000 	   -0.2090380000 	   -1.6735530000
