32
tauto -892.966626592
C   	   -5.3912860000 	   -2.0242930000 	    0.7522170000
C   	   -4.7484620000 	   -1.6899600000 	   -0.5802540000
O   	   -3.5245640000 	   -0.9557010000 	   -0.4000850000
C   	   -3.6619710000 	    0.3682010000 	   -0.1767790000
C   	   -2.3618400000 	    1.0100270000 	   -0.0056340000
C   	   -2.0433250000 	    2.3195590000 	    0.2476830000
N   	   -0.6893790000 	    2.4850160000 	    0.3334610000
C   	   -0.2028320000 	    1.2774940000 	    0.1324060000
N   	    1.1607230000 	    1.0112000000 	    0.1345850000
C   	    1.7183090000 	   -0.2275780000 	   -0.0502660000
C   	    3.2133990000 	   -0.2879460000 	   -0.0276680000
C   	    4.0289660000 	    0.8174000000 	   -0.2797920000
C   	    5.4125540000 	    0.6831420000 	   -0.2503910000
C   	    5.9865730000 	   -0.5531260000 	    0.0312250000
C   	    5.1760600000 	   -1.6600670000 	    0.2715080000
C   	    3.7939970000 	   -1.5293910000 	    0.2351640000
O   	    1.0300280000 	   -1.2272290000 	   -0.2124280000
N   	   -1.1493150000 	    0.3458890000 	   -0.0769680000
H   	   -0.9647900000 	   -0.6365990000 	   -0.2344200000
O   	   -4.7235870000 	    0.9483170000 	   -0.1271660000
H   	   -6.2857930000 	   -2.6352760000 	    0.5914260000
H   	   -5.6875830000 	   -1.1084420000 	    1.2701740000
H   	   -4.6986440000 	   -2.5862140000 	    1.3863540000
H   	   -5.4218690000 	   -1.0985320000 	   -1.2060710000
H   	   -4.4480730000 	   -2.5906430000 	   -1.1207410000
H   	   -2.7307470000 	    3.1457310000 	    0.3701520000
H   	    1.7329620000 	    1.8075800000 	    0.3728570000
H   	    3.5988890000 	    1.7830300000 	   -0.5368890000
H   	    6.0425220000 	    1.5440790000 	   -0.4563020000
H   	    7.0683010000 	   -0.6557880000 	    0.0561880000
H   	    5.6232530000 	   -2.6272910000 	    0.4837390000
H   	    3.1414920000 	   -2.3802230000 	    0.4069010000
