23
tauto -625.833682626
O   	   -4.4206820000 	   -0.2311280000 	   -0.0868430000
C   	   -3.2204490000 	   -0.1150690000 	   -0.0507030000
C   	   -2.4041800000 	    1.1770580000 	   -0.0825410000
N   	   -1.0405620000 	    0.7049610000 	   -0.1871710000
C   	    0.0892450000 	    1.5139450000 	    0.2313250000
N   	   -2.2878870000 	   -1.1242110000 	    0.0399680000
C   	   -0.9814710000 	   -0.6534570000 	    0.0214620000
N   	    0.0505370000 	   -1.3919800000 	    0.1615510000
C   	    1.2759930000 	   -0.7003220000 	    0.0785030000
C   	    1.3565540000 	    0.7015880000 	    0.0787760000
C   	    2.5973350000 	    1.3229280000 	   -0.0213050000
C   	    3.7638450000 	    0.5714680000 	   -0.1127140000
C   	    3.6855240000 	   -0.8196260000 	   -0.1074340000
C   	    2.4516180000 	   -1.4486060000 	   -0.0145480000
H   	   -2.5777790000 	    1.7396330000 	    0.8473250000
H   	   -2.7063880000 	    1.8029980000 	   -0.9285460000
H   	   -0.0448130000 	    1.8457810000 	    1.2774500000
H   	    0.1312480000 	    2.4162540000 	   -0.3904490000
H   	   -2.5105330000 	   -2.1076850000 	    0.0744320000
H   	    2.6503380000 	    2.4107760000 	   -0.0266090000
H   	    4.7270740000 	    1.0682200000 	   -0.1900240000
H   	    4.5913830000 	   -1.4162140000 	   -0.1796400000
H   	    2.3662330000 	   -2.5315660000 	   -0.0145540000
