28
tauto -815.493238296
C   	    5.8505910000 	    0.4958150000 	   -0.3669470000
C   	    5.1223410000 	   -0.1946460000 	    0.7695100000
O   	    3.7420890000 	    0.2250340000 	    0.8281450000
C   	    2.9123720000 	   -0.3804380000 	   -0.0066680000
C   	    1.4702920000 	    0.1520200000 	    0.1297700000
C   	    0.4756000000 	   -0.5261920000 	   -0.7937700000
C   	   -0.9483970000 	   -0.1332330000 	   -0.5272900000
C   	   -1.8775920000 	   -1.0454150000 	   -0.1373680000
N   	   -3.1517010000 	   -0.6211380000 	    0.0775230000
N   	   -4.1737960000 	   -1.4022300000 	    0.4596980000
C   	   -5.2025790000 	   -0.5556930000 	    0.5354540000
C   	   -4.8674230000 	    0.7643570000 	    0.2075390000
C   	   -3.5153880000 	    0.7092430000 	   -0.0919720000
N   	   -2.6057450000 	    1.6396120000 	   -0.4808670000
C   	   -1.3868000000 	    1.2247970000 	   -0.6803640000
O   	    1.2027670000 	    1.0428740000 	    0.8944810000
O   	    3.2000560000 	   -1.2505400000 	   -0.7967390000
H   	    6.9121820000 	    0.2295130000 	   -0.3412180000
H   	    5.7647350000 	    1.5824610000 	   -0.2743640000
H   	    5.4420620000 	    0.1847530000 	   -1.3322480000
H   	    5.5281980000 	    0.0890160000 	    1.7422510000
H   	    5.1535050000 	   -1.2822790000 	    0.6631280000
H   	    0.6165960000 	   -1.6100430000 	   -0.7162200000
H   	    0.7753870000 	   -0.2808840000 	   -1.8226890000
H   	   -1.7011550000 	   -2.1043490000 	    0.0213900000
H   	   -6.1700230000 	   -0.9422550000 	    0.8315560000
H   	   -5.4983940000 	    1.6398560000 	    0.1869110000
H   	   -0.6618060000 	    1.9778670000 	   -0.9874320000
