19
tauto -473.43990876
O   	    3.3248620000 	   -0.0921460000 	   -0.0858580000
C   	    2.1186470000 	   -0.0432060000 	   -0.0319040000
N   	    1.2398240000 	   -1.0964170000 	   -0.0583510000
C   	   -0.0994080000 	   -0.7006410000 	    0.0304480000
N   	   -1.0807580000 	   -1.5062920000 	    0.0495400000
C   	   -2.3836890000 	   -0.8628580000 	    0.1819960000
C   	   -2.4402080000 	    0.5486710000 	   -0.4150600000
C   	   -1.3221980000 	    1.4226850000 	    0.1558180000
N   	   -0.0881330000 	    0.6728110000 	    0.0872680000
C   	    1.2480670000 	    1.2111500000 	    0.0835420000
H   	    1.5127670000 	   -2.0654940000 	   -0.1165400000
H   	   -2.6582400000 	   -0.8248010000 	    1.2468630000
H   	   -3.1298880000 	   -1.4979130000 	   -0.3072510000
H   	   -3.4124580000 	    1.0124970000 	   -0.2183950000
H   	   -2.3176270000 	    0.4811880000 	   -1.5027160000
H   	   -1.5453650000 	    1.7121320000 	    1.1938700000
H   	   -1.2123980000 	    2.3456950000 	   -0.4270810000
H   	    1.5010140000 	    1.7496930000 	    1.0068560000
H   	    1.4394980000 	    1.8786600000 	   -0.7669780000
