23
tauto -625.833304733
O   	   -4.1787510000 	   -0.4333080000 	   -0.1996820000
C   	   -3.0030840000 	   -0.2082450000 	   -0.0021310000
C   	   -2.5519970000 	    1.2034750000 	    0.4101350000
C   	   -1.2038540000 	    1.5955840000 	   -0.1907560000
N   	   -2.0355610000 	   -1.2000410000 	   -0.0633970000
C   	   -0.8000430000 	   -0.8053140000 	   -0.0063970000
N   	   -0.3016110000 	    0.4739560000 	   -0.0155750000
C   	    1.0900190000 	    0.4431000000 	   -0.0227540000
C   	    2.0356680000 	    1.4537370000 	   -0.0621770000
C   	    3.3791620000 	    1.0751470000 	   -0.0407590000
C   	    3.7514200000 	   -0.2678510000 	    0.0181680000
C   	    2.7960030000 	   -1.2849160000 	    0.0547120000
C   	    1.4642540000 	   -0.9083410000 	    0.0302950000
N   	    0.2824950000 	   -1.6418260000 	    0.0477460000
H   	   -2.4800590000 	    1.2179840000 	    1.5052470000
H   	   -3.3314490000 	    1.9080710000 	    0.1154050000
H   	   -0.7830610000 	    2.4730560000 	    0.3102600000
H   	   -1.3000310000 	    1.8261110000 	   -1.2601970000
H   	    1.7464810000 	    2.4997340000 	   -0.1115930000
H   	    4.1467420000 	    1.8429070000 	   -0.0714840000
H   	    4.8052020000 	   -0.5305660000 	    0.0347160000
H   	    3.0872220000 	   -2.3303860000 	    0.0984470000
H   	    0.1764120000 	   -2.6433190000 	    0.0652280000
