12
tauto -356.730830927
N   	   -2.3190830000 	   -0.4921930000 	   -0.0973380000
C   	   -1.0345930000 	   -0.0070430000 	   -0.0019900000
N   	    0.0217270000 	   -0.9203380000 	    0.0499850000
N   	   -0.7006290000 	    1.2269790000 	    0.0024440000
C   	    0.7554140000 	    1.2465830000 	    0.0154570000
C   	    1.2160530000 	   -0.2112500000 	    0.0103830000
O   	    2.3283500000 	   -0.6791640000 	   -0.0289160000
H   	   -2.5238090000 	   -1.2961190000 	    0.4807210000
H   	   -3.0036130000 	    0.2455620000 	    0.0066660000
H   	   -0.0383660000 	   -1.9107340000 	   -0.1320360000
H   	    1.1396220000 	    1.7573030000 	    0.9059340000
H   	    1.1640120000 	    1.7664240000 	   -0.8586990000
