19
tauto -473.440044178
O   	    3.0489650000 	   -0.7760010000 	    0.0758430000
C   	    1.9340010000 	   -0.3093950000 	   -0.0152580000
N   	    0.8096010000 	   -1.1089560000 	    0.0571230000
C   	   -0.5015700000 	   -0.6718100000 	   -0.0326410000
N   	   -1.5159430000 	   -1.4373610000 	    0.0640460000
C   	   -2.6732030000 	   -0.5490920000 	   -0.0951760000
C   	   -2.1225770000 	    0.8812120000 	    0.0912830000
N   	   -0.7150320000 	    0.6855140000 	   -0.2499630000
C   	    0.2863990000 	    1.5982820000 	    0.2692250000
C   	    1.6540420000 	    1.1642960000 	   -0.2482700000
H   	    0.9523220000 	   -2.1022450000 	    0.1844440000
H   	   -3.4537510000 	   -0.7956180000 	    0.6301740000
H   	   -3.0978700000 	   -0.6795390000 	   -1.0991290000
H   	   -2.2186690000 	    1.2161570000 	    1.1375160000
H   	   -2.5915240000 	    1.6248620000 	   -0.5596070000
H   	    0.2758720000 	    1.6145510000 	    1.3733830000
H   	    0.0554040000 	    2.6107420000 	   -0.0758760000
H   	    2.4638410000 	    1.7290230000 	    0.2191490000
H   	    1.7097210000 	    1.3347390000 	   -1.3302190000
