16
tauto -454.947363925
O   	    3.2453850000 	   -0.1715200000 	   -0.0001030000
C   	    1.9018150000 	   -0.0384170000 	   -0.0000360000
C   	    1.1545590000 	    1.1221370000 	    0.0001850000
N   	   -0.1560500000 	    0.6829610000 	   -0.0000020000
C   	   -1.3357790000 	    1.3770500000 	   -0.0000730000
C   	   -2.5131770000 	    0.6962530000 	   -0.0000720000
C   	   -2.5119120000 	   -0.7278590000 	   -0.0000150000
C   	   -1.3332910000 	   -1.4176130000 	    0.0000560000
C   	   -0.1078610000 	   -0.7065400000 	    0.0000700000
N   	    1.1419250000 	   -1.1517320000 	    0.0000050000
H   	    3.6429520000 	    0.7075320000 	   -0.0001370000
H   	    1.4135530000 	    2.1703620000 	    0.0003540000
H   	   -1.2551980000 	    2.4585810000 	   -0.0000650000
H   	   -3.4455150000 	    1.2502930000 	   -0.0000810000
H   	   -3.4574280000 	   -1.2620190000 	   -0.0000280000
H   	   -1.2887020000 	   -2.5012600000 	    0.0000710000
