19
tauto -419.267399958
C   	   -1.1462940000 	    1.8497890000 	    0.6292340000
C   	   -0.5930030000 	    0.8184830000 	   -0.3596740000
C   	   -1.1770910000 	   -0.5670850000 	   -0.1522460000
N   	   -2.5119340000 	   -0.8162730000 	   -0.2590000000
N   	   -0.2987560000 	   -1.4833590000 	    0.0884120000
C   	    0.9404410000 	   -0.8055390000 	    0.0578500000
O   	    2.0469070000 	   -1.5446260000 	    0.2827100000
C   	    0.8759480000 	    0.5121650000 	   -0.1896280000
C   	    1.9881180000 	    1.5040550000 	   -0.2816210000
H   	   -2.2217820000 	    2.0189700000 	    0.4913280000
H   	   -0.6450120000 	    2.8132990000 	    0.4924160000
H   	   -0.9744200000 	    1.5220420000 	    1.6599530000
H   	   -0.8231740000 	    1.1429620000 	   -1.3861640000
H   	   -3.1536260000 	   -0.0491750000 	   -0.1337540000
H   	   -2.8257690000 	   -1.7128950000 	    0.0825740000
H   	    1.7400220000 	   -2.4518590000 	    0.4180220000
H   	    2.9499100000 	    1.0061750000 	   -0.1256610000
H   	    1.9013060000 	    2.2978230000 	    0.4734920000
H   	    2.0234060000 	    1.9958750000 	   -1.2632560000
