13
tauto -340.696895697
N   	    2.2971180000 	   -0.7590290000 	    0.0000640000
C   	    1.1553520000 	   -0.2096360000 	   -0.0000350000
C   	    0.7468000000 	    1.2586360000 	   -0.0000820000
C   	   -0.7884000000 	    1.2514800000 	    0.0000800000
N   	   -0.0167470000 	   -0.9535770000 	   -0.0001590000
C   	   -1.1860850000 	   -0.2212480000 	   -0.0000080000
O   	   -2.3036810000 	   -0.6801620000 	    0.0000110000
H   	    3.0272080000 	   -0.0476510000 	    0.0002250000
H   	    1.1663670000 	    1.7520770000 	   -0.8819620000
H   	    1.1665350000 	    1.7522010000 	    0.8816480000
H   	   -1.2256780000 	    1.7309410000 	   -0.8799160000
H   	   -1.2253770000 	    1.7305640000 	    0.8804430000
H   	   -0.0082110000 	   -1.9639880000 	    0.0004210000
