13
tauto -340.644531707
N   	    2.3865930000 	   -0.6376350000 	   -0.0000050000
C   	    1.1100770000 	   -0.0255350000 	   -0.0000210000
N   	   -0.0069830000 	   -0.8435590000 	   -0.0000270000
H   	    0.0226780000 	   -1.8505680000 	   -0.0000080000
C   	    0.6645770000 	    1.2692810000 	    0.0000010000
C   	   -0.7670590000 	    1.2455410000 	    0.0000160000
C   	   -1.1285150000 	   -0.0775460000 	    0.0000030000
O   	   -2.3298120000 	   -0.7132700000 	    0.0000090000
H   	    2.9243720000 	   -0.3774330000 	    0.8193810000
H   	    2.9245220000 	   -0.3771650000 	   -0.8192060000
H   	    1.2915900000 	    2.1522520000 	    0.0000200000
H   	   -1.4380640000 	    2.0950310000 	   -0.0000170000
H   	   -3.0183510000 	   -0.0380490000 	   -0.0000120000
