23
tauto -496.714387787
N   	    1.9269510000 	    2.2794590000 	   -0.0865990000
C   	    1.3828190000 	    1.1435950000 	    0.0492580000
C   	   -0.0476140000 	    0.7034630000 	    0.2978800000
C   	   -0.0662150000 	   -0.7098020000 	   -0.2862690000
C   	   -1.2696260000 	   -1.4980370000 	    0.1945000000
C   	   -2.5282380000 	   -0.7183920000 	   -0.2260790000
C   	   -2.5140470000 	    0.7551080000 	    0.2211800000
C   	   -1.2373420000 	    1.5119830000 	   -0.1911530000
N   	    2.1194150000 	   -0.0444730000 	    0.0402810000
C   	    1.3522470000 	   -1.1982480000 	   -0.0385320000
O   	    1.7674390000 	   -2.3317280000 	    0.0230420000
H   	    1.2174800000 	    3.0100770000 	   -0.0318090000
H   	   -0.1313440000 	    0.6029680000 	    1.3929350000
H   	   -0.1353990000 	   -0.6138920000 	   -1.3831240000
H   	   -1.2315900000 	   -1.6081170000 	    1.2867130000
H   	   -1.2737760000 	   -2.5065970000 	   -0.2317030000
H   	   -3.4252700000 	   -1.2076850000 	    0.1702890000
H   	   -2.6114780000 	   -0.7575350000 	   -1.3216780000
H   	   -2.6011850000 	    0.7961950000 	    1.3163020000
H   	   -3.3969940000 	    1.2660530000 	   -0.1794190000
H   	   -1.2457700000 	    2.5215150000 	    0.2385640000
H   	   -1.1904280000 	    1.6226080000 	   -1.2831790000
H   	    3.1297850000 	   -0.0547000000 	    0.0412870000
