19
tauto -494.255843641
C   	   -1.8487800000 	    1.9478000000 	   -0.0002560000
C   	   -1.1403970000 	    0.6327720000 	   -0.0000680000
N   	    0.2356640000 	    0.4610680000 	    0.0001130000
C   	    1.2618970000 	    1.3688890000 	    0.0002560000
C   	    2.5498760000 	    0.9315340000 	    0.0001200000
C   	    2.8312420000 	   -0.4636560000 	   -0.0000990000
C   	    1.8092180000 	   -1.3691500000 	   -0.0002130000
C   	    0.4685940000 	   -0.9132730000 	   -0.0001180000
N   	   -0.6651610000 	   -1.6003460000 	    0.0000920000
C   	   -1.6286200000 	   -0.6596500000 	    0.0001020000
O   	   -2.9247020000 	   -1.0476500000 	    0.0001220000
H   	   -1.1444910000 	    2.7846510000 	   -0.0017000000
H   	   -2.4810550000 	    2.0736350000 	    0.8878290000
H   	   -2.4829580000 	    2.0722490000 	   -0.8871780000
H   	    0.9852000000 	    2.4169410000 	    0.0004030000
H   	    3.3531770000 	    1.6603030000 	    0.0001740000
H   	    3.8630800000 	   -0.8021400000 	   -0.0001380000
H   	    1.9757440000 	   -2.4409390000 	   -0.0002960000
H   	   -3.4827710000 	   -0.2601500000 	    0.0001570000
