16
tauto -379.963469027
N   	   -2.2558380000 	   -1.0786020000 	   -0.1537850000
C   	   -1.0785030000 	   -0.4153850000 	    0.0145870000
N   	    0.0333040000 	   -1.0478280000 	   -0.1287320000
C   	    1.2084970000 	   -0.2912290000 	   -0.0124710000
O   	    2.3113780000 	   -1.0691940000 	    0.1325180000
C   	    1.2791110000 	    1.0444040000 	   -0.0647690000
C   	    0.0018260000 	    1.8209360000 	   -0.2504620000
C   	   -1.1602760000 	    1.0507770000 	    0.3787770000
H   	   -2.2066380000 	   -2.0851160000 	   -0.2113440000
H   	   -3.1080880000 	   -0.6784480000 	    0.2031070000
H   	    1.9887900000 	   -1.9810180000 	    0.1024240000
H   	    2.2404680000 	    1.5439510000 	   -0.0292970000
H   	   -0.2054990000 	    1.9949760000 	   -1.3183880000
H   	    0.0708830000 	    2.8093690000 	    0.2160440000
H   	   -2.1305870000 	    1.4665630000 	    0.0867330000
H   	   -1.0865500000 	    1.1112650000 	    1.4742290000
