23
tauto -496.677029092
N   	    2.2381560000 	   -1.9525840000 	   -0.0128710000
C   	    1.5314700000 	   -0.7929670000 	    0.0930400000
N   	    2.0223490000 	    0.3710210000 	   -0.1834760000
C   	    0.9428460000 	    1.2695650000 	   -0.0127310000
O   	    1.1786090000 	    2.5683800000 	   -0.2910350000
C   	   -0.2039510000 	    0.7106830000 	    0.4018510000
C   	    0.0747440000 	   -0.7659140000 	    0.4993560000
C   	   -0.8794360000 	   -1.5561600000 	   -0.4084720000
C   	   -2.3259620000 	   -1.1275290000 	   -0.1279760000
C   	   -2.5362180000 	    0.3757090000 	   -0.3527600000
C   	   -1.5998780000 	    1.2258310000 	    0.5269060000
H   	    3.2386380000 	   -1.8618980000 	   -0.1113560000
H   	    1.9148780000 	   -2.7598850000 	    0.4955270000
H   	    2.0949770000 	    2.6135720000 	   -0.5975860000
H   	   -0.0241270000 	   -1.1384270000 	    1.5325470000
H   	   -0.7593620000 	   -2.6378880000 	   -0.2634280000
H   	   -0.6305090000 	   -1.3396580000 	   -1.4557960000
H   	   -2.5821740000 	   -1.3794860000 	    0.9122630000
H   	   -3.0091720000 	   -1.7003680000 	   -0.7665030000
H   	   -3.5834220000 	    0.6378060000 	   -0.1570610000
H   	   -2.3382390000 	    0.6066280000 	   -1.4083170000
H   	   -1.9466230000 	    1.1673300000 	    1.5707050000
H   	   -1.6489610000 	    2.2808590000 	    0.2364290000
