26
tauto -685.948312923
O   	    0.2691640000 	    2.9153290000 	   -0.3288070000
C   	   -0.4685370000 	    1.7946330000 	   -0.1894990000
C   	   -0.0014750000 	    0.4967200000 	   -0.0411920000
C   	    1.3702980000 	   -0.0179700000 	   -0.0038640000
C   	    1.7679640000 	   -1.1333340000 	   -0.7552230000
C   	    3.0846780000 	   -1.5764650000 	   -0.7235300000
C   	    4.0363990000 	   -0.9022510000 	    0.0379430000
C   	    3.6588760000 	    0.2148270000 	    0.7760360000
C   	    2.3363820000 	    0.6468550000 	    0.7647220000
N   	   -1.1630530000 	   -0.2625750000 	    0.0350050000
C   	   -1.3519990000 	   -1.6040330000 	    0.2397760000
C   	   -2.6166460000 	   -2.1004880000 	    0.3086710000
C   	   -3.7340610000 	   -1.2286280000 	    0.1803580000
C   	   -3.5435140000 	    0.1121160000 	    0.0026530000
C   	   -2.2271310000 	    0.6280050000 	   -0.0651930000
N   	   -1.8097860000 	    1.8805490000 	   -0.2079080000
H   	    1.1958080000 	    2.6562160000 	   -0.4310680000
H   	    1.0431980000 	   -1.6406450000 	   -1.3883090000
H   	    3.3737230000 	   -2.4445050000 	   -1.3107390000
H   	    5.0668250000 	   -1.2469790000 	    0.0549890000
H   	    4.3922300000 	    0.7443000000 	    1.3789540000
H   	    2.0350550000 	    1.4918500000 	    1.3813760000
H   	   -0.4556060000 	   -2.2035570000 	    0.3481800000
H   	   -2.7580790000 	   -3.1636710000 	    0.4693630000
H   	   -4.7391580000 	   -1.6362890000 	    0.2336600000
H   	   -4.3648310000 	    0.8149100000 	   -0.0855660000
