16
tauto -454.941785669
O   	    2.2713850000 	   -1.3960020000 	    0.0003120000
C   	    1.5575320000 	   -0.2429350000 	    0.0000660000
C   	    1.8514020000 	    1.0958130000 	   -0.0000580000
N   	    0.7061940000 	    1.8489530000 	   -0.0003240000
C   	   -0.2825710000 	    0.9800370000 	    0.0001020000
N   	    0.1934310000 	   -0.3353180000 	   -0.0001970000
C   	   -0.6296610000 	   -1.4399790000 	   -0.0003040000
C   	   -1.9701500000 	   -1.2492970000 	   -0.0001060000
C   	   -2.5136830000 	    0.0778930000 	    0.0001880000
C   	   -1.6941940000 	    1.1644160000 	    0.0002650000
H   	    3.2098140000 	   -1.1730930000 	    0.0002540000
H   	    2.8325130000 	    1.5548350000 	   -0.0000390000
H   	   -0.1319690000 	   -2.4026090000 	   -0.0004360000
H   	   -2.6284060000 	   -2.1114190000 	   -0.0001260000
H   	   -3.5919260000 	    0.2072670000 	    0.0002490000
H   	   -2.0705320000 	    2.1819020000 	    0.0003280000
