19
tauto -419.31019911
C   	   -1.6351370000 	    1.6898960000 	   -0.4511930000
C   	   -0.7095210000 	    0.7123750000 	    0.2617710000
C   	    0.7399690000 	    0.6928120000 	   -0.2557200000
C   	    1.7197720000 	    1.6146140000 	    0.4558790000
C   	    1.1530440000 	   -0.7746410000 	   -0.1638720000
N   	   -0.0008470000 	   -1.5046790000 	    0.0272260000
O   	    2.2696500000 	   -1.2294920000 	   -0.2610480000
C   	   -1.1566230000 	   -0.7442770000 	    0.1633840000
N   	   -2.3045230000 	   -1.2791530000 	    0.2103590000
H   	   -1.2537220000 	    2.7122640000 	   -0.3603730000
H   	   -2.6427820000 	    1.6778510000 	   -0.0217810000
H   	   -1.7169400000 	    1.4475570000 	   -1.5164100000
H   	   -0.6873310000 	    0.9550290000 	    1.3346960000
H   	    0.7370770000 	    0.9299140000 	   -1.3302420000
H   	    1.7320990000 	    1.4151610000 	    1.5333230000
H   	    1.4523660000 	    2.6657080000 	    0.3045770000
H   	    2.7309280000 	    1.4531830000 	    0.0723740000
H   	   -0.0185910000 	   -2.5151060000 	    0.0257640000
H   	   -3.0217460000 	   -0.5634860000 	    0.3218690000
