28
tauto -558.045808899
C   	    3.1070630000 	    0.4964210000 	    1.2228020000
C   	    2.2093010000 	   -0.2606520000 	    0.2439340000
C   	    3.0668540000 	   -0.8719790000 	   -0.8775970000
C   	    1.4419160000 	   -1.3722410000 	    0.9791220000
C   	    1.2025220000 	    0.7125800000 	   -0.3753410000
C   	    0.1346600000 	    0.1627760000 	   -1.3227810000
C   	   -1.2061260000 	    0.0509280000 	   -0.6240700000
N   	   -1.7193690000 	   -1.1771620000 	   -0.5111400000
C   	   -2.9019390000 	   -1.3033030000 	    0.0962990000
C   	   -3.6210300000 	   -0.2346660000 	    0.6163240000
C   	   -3.0744330000 	    1.0398320000 	    0.5021540000
C   	   -1.8467950000 	    1.1882930000 	   -0.1267460000
O   	    1.2126510000 	    1.8998140000 	   -0.1209690000
H   	    3.8285760000 	   -0.1926080000 	    1.6768060000
H   	    2.5176510000 	    0.9579410000 	    2.0207420000
H   	    3.6583530000 	    1.2950420000 	    0.7173930000
H   	    3.8194880000 	   -1.5371250000 	   -0.4390860000
H   	    3.5945680000 	   -0.0952700000 	   -1.4432800000
H   	    2.4717900000 	   -1.4658430000 	   -1.5793720000
H   	    2.1546900000 	   -2.0915590000 	    1.3992360000
H   	    0.7571160000 	   -1.9162610000 	    0.3194860000
H   	    0.8520160000 	   -0.9608220000 	    1.8065640000
H   	    0.3887220000 	   -0.8207850000 	   -1.7218470000
H   	    0.0581840000 	    0.8732350000 	   -2.1529570000
H   	   -3.2911300000 	   -2.3177700000 	    0.1693630000
H   	   -4.5798620000 	   -0.3995840000 	    1.0985780000
H   	   -3.5975270000 	    1.9063870000 	    0.8987350000
H   	   -1.3702130000 	    2.1587020000 	   -0.2292230000
