20
tauto -494.437708802
C   	   -2.7982540000 	   -1.2444570000 	    0.0602780000
C   	   -1.4648040000 	   -0.5950100000 	    0.0273650000
O   	   -0.3483500000 	   -1.4231070000 	    0.1157350000
C   	    0.7781570000 	   -0.6536420000 	    0.0181340000
N   	    0.3624860000 	    0.6753920000 	   -0.1597440000
C   	    1.0972650000 	    1.8120590000 	    0.3791730000
N   	    1.9148130000 	   -1.1995090000 	    0.0769230000
C   	    3.1107600000 	   -0.4433670000 	   -0.2202660000
C   	   -1.0379350000 	    0.6603270000 	   -0.1158540000
O   	   -1.6722010000 	    1.8483820000 	   -0.2474980000
H   	   -2.9560200000 	   -1.7773490000 	    1.0044840000
H   	   -2.9070060000 	   -1.9671520000 	   -0.7559340000
H   	   -3.5944290000 	   -0.4992760000 	   -0.0437780000
H   	    1.3441750000 	    1.6628830000 	    1.4377310000
H   	    0.4612710000 	    2.6932600000 	    0.2838610000
H   	    2.0155400000 	    1.9854390000 	   -0.1823070000
H   	    3.9281710000 	   -1.1479360000 	   -0.4012480000
H   	    3.4258970000 	    0.2069100000 	    0.6080750000
H   	    3.0094010000 	    0.1811690000 	   -1.1211380000
H   	   -2.6148130000 	    1.7132170000 	   -0.0888760000
