23
tauto -571.688023932
O   	   -3.0557750000 	    1.9643430000 	   -0.6321550000
C   	   -2.6362890000 	    0.8814930000 	   -0.3027370000
C   	   -3.4387030000 	   -0.3622990000 	    0.0564390000
C   	   -2.3964200000 	   -1.4453410000 	    0.3655490000
N   	   -1.2958810000 	    0.5508370000 	   -0.1801670000
C   	   -1.0512910000 	   -0.7641390000 	    0.1982460000
N   	    0.0642160000 	   -1.3434000000 	    0.3660580000
C   	    1.2612430000 	   -0.6124430000 	    0.1954570000
C   	    2.1495030000 	   -0.9937630000 	   -0.8141770000
C   	    3.3518900000 	   -0.3181410000 	   -0.9814030000
C   	    3.6933400000 	    0.7364610000 	   -0.1373070000
C   	    2.8193700000 	    1.1088820000 	    0.8787620000
C   	    1.6088730000 	    0.4418200000 	    1.0470890000
H   	   -4.0920220000 	   -0.6111780000 	   -0.7842650000
H   	   -4.0845280000 	   -0.1246710000 	    0.9064990000
H   	   -2.4499440000 	   -2.2964380000 	   -0.3184820000
H   	   -2.4755340000 	   -1.8425370000 	    1.3807670000
H   	   -0.5633640000 	    1.2214410000 	   -0.3708520000
H   	    1.8809400000 	   -1.8262670000 	   -1.4587840000
H   	    4.0315260000 	   -0.6215160000 	   -1.7739510000
H   	    4.6379670000 	    1.2577400000 	   -0.2661370000
H   	    3.0799240000 	    1.9222480000 	    1.5516680000
H   	    0.9337940000 	    0.7192030000 	    1.8540120000
