17
tauto -455.214361818
C   	    1.4586270000 	   -0.8850940000 	    1.2673620000
C   	    0.7254590000 	   -0.4747010000 	    0.0000040000
C   	    1.4586420000 	   -0.8842890000 	   -1.2676530000
C   	    0.4492620000 	    1.0297390000 	    0.0004010000
N   	   -0.9149890000 	    1.1382790000 	   -0.0000730000
O   	    1.2692460000 	    1.9174010000 	    0.0002330000
O   	   -0.5958090000 	   -1.0632000000 	   -0.0001600000
C   	   -1.5518990000 	   -0.1000460000 	   -0.0000130000
N   	   -2.8017380000 	   -0.2530950000 	   -0.0000150000
H   	    2.4228950000 	   -0.3708930000 	    1.3127850000
H   	    1.6266840000 	   -1.9661360000 	    1.2708120000
H   	    0.8765610000 	   -0.6174790000 	    2.1545100000
H   	    2.4230490000 	   -0.3702900000 	   -1.3124560000
H   	    0.8768090000 	   -0.6156770000 	   -2.1546510000
H   	    1.6263460000 	   -1.9653770000 	   -1.2720740000
H   	   -1.4295200000 	    2.0061860000 	    0.0004740000
H   	   -3.0337750000 	   -1.2438770000 	    0.0000290000
