17
tauto -493.08061248
N   	    1.8175680000 	    2.2741580000 	    0.0000220000
C   	    1.2676320000 	    1.1319770000 	   -0.0000040000
C   	   -0.1609570000 	    0.6967170000 	    0.0000060000
C   	   -0.1888170000 	   -0.6941920000 	    0.0000030000
C   	   -1.3773000000 	   -1.4014740000 	   -0.0000200000
C   	   -2.5632660000 	   -0.6672270000 	   -0.0000080000
C   	   -2.5405190000 	    0.7293120000 	    0.0000000000
C   	   -1.3348630000 	    1.4319500000 	    0.0000030000
N   	    2.0022560000 	   -0.0553540000 	   -0.0000940000
C   	    1.2196010000 	   -1.2007040000 	    0.0000820000
O   	    1.6141600000 	   -2.3436640000 	    0.0000130000
H   	    1.1071560000 	    3.0056150000 	    0.0000700000
H   	   -1.3737400000 	   -2.4878620000 	   -0.0000120000
H   	   -3.5187380000 	   -1.1846680000 	   -0.0000030000
H   	   -3.4789290000 	    1.2773340000 	    0.0000020000
H   	   -1.3279810000 	    2.5196260000 	   -0.0000080000
H   	    3.0111170000 	   -0.0705150000 	   -0.0000240000
