29
tauto -836.570431883
C   	   -4.2714970000 	   -0.4892260000 	    1.2116850000
O   	   -3.7785270000 	   -0.7974230000 	   -0.0849280000
C   	   -2.4207040000 	   -0.6998630000 	   -0.2179160000
C   	   -1.6743160000 	   -1.8510570000 	   -0.4140640000
C   	   -0.2972420000 	   -1.7878770000 	   -0.6124450000
C   	    0.3360320000 	   -0.5514870000 	   -0.6002470000
C   	    1.8334650000 	   -0.4903470000 	   -0.8162040000
C   	    2.6171130000 	   -1.2372470000 	    0.2685350000
N   	    3.4141430000 	   -0.2764440000 	    0.8328120000
O   	    2.5501040000 	   -2.4076270000 	    0.5525360000
O   	    2.3397900000 	    0.8479080000 	   -0.7575900000
C   	    3.2634260000 	    0.9693760000 	    0.2365110000
N   	    3.8925530000 	    2.0054290000 	    0.5725320000
C   	   -0.4001510000 	    0.6180470000 	   -0.4030330000
C   	   -1.7782960000 	    0.5526980000 	   -0.2163590000
O   	   -2.5807140000 	    1.6347990000 	   -0.0354670000
C   	   -1.9762690000 	    2.9104230000 	   -0.0727500000
H   	   -4.0657900000 	    0.5521630000 	    1.4787530000
H   	   -3.8306640000 	   -1.1575280000 	    1.9631130000
H   	   -5.3507610000 	   -0.6505980000 	    1.1739540000
H   	   -2.1987460000 	   -2.8022180000 	   -0.4164110000
H   	    0.2804750000 	   -2.6978160000 	   -0.7465720000
H   	    2.0994210000 	   -0.9099780000 	   -1.7932810000
H   	    4.0618570000 	   -0.4348940000 	    1.5900310000
H   	    3.6194660000 	    2.7913010000 	   -0.0131980000
H   	    0.1159640000 	    1.5708730000 	   -0.4119940000
H   	   -2.7830160000 	    3.6303620000 	    0.0720870000
H   	   -1.4942520000 	    3.0949560000 	   -1.0411140000
H   	   -1.2354260000 	    3.0285870000 	    0.7285410000
