17
tauto -455.162558387
O   	   -2.6880170000 	   -0.8307450000 	   -0.1300930000
N   	   -2.1557280000 	    0.4600790000 	    0.0038070000
C   	   -0.8818130000 	    0.4062560000 	    0.1058890000
C   	   -0.0996210000 	    1.6742760000 	    0.2894020000
C   	    1.2479710000 	    1.5715070000 	   -0.4242140000
C   	    2.0130790000 	    0.3554390000 	    0.0966550000
N   	   -0.1698190000 	   -0.7842440000 	    0.0718850000
C   	    1.2067560000 	   -0.9285600000 	    0.0391480000
O   	    1.7114740000 	   -2.0301650000 	   -0.0175030000
H   	   -3.6348320000 	   -0.6617520000 	   -0.1975990000
H   	    0.0688380000 	    1.8328260000 	    1.3634770000
H   	   -0.7058330000 	    2.5072650000 	   -0.0740380000
H   	    1.8321600000 	    2.4831250000 	   -0.2641040000
H   	    1.0877090000 	    1.4772620000 	   -1.5053420000
H   	    2.2944590000 	    0.5097400000 	    1.1473730000
H   	    2.9388840000 	    0.1726580000 	   -0.4545530000
H   	   -0.7084310000 	   -1.6381980000 	   -0.0055700000
