21
tauto -607.579157707
N   	    3.2515380000 	   -1.6370150000 	   -0.2591170000
C   	    2.4266190000 	   -0.7086210000 	   -0.0574950000
N   	    2.3471580000 	    0.5875580000 	   -0.5801450000
C   	    1.2683020000 	    1.2885490000 	   -0.0994680000
O   	    0.9570630000 	    2.4259050000 	   -0.3525470000
O   	    1.3906320000 	   -0.8627400000 	    0.8040740000
C   	    0.5626560000 	    0.2980510000 	    0.8272290000
C   	   -0.8544620000 	   -0.0005710000 	    0.3825850000
C   	   -1.7844730000 	    1.0395860000 	    0.3412840000
C   	   -3.0904260000 	    0.7861820000 	   -0.0602000000
C   	   -3.4751120000 	   -0.5040790000 	   -0.4178110000
C   	   -2.5469960000 	   -1.5384480000 	   -0.3751310000
C   	   -1.2359490000 	   -1.2902100000 	    0.0238810000
H   	    3.9693490000 	   -1.3608180000 	   -0.9236150000
H   	    3.0037620000 	    0.9719620000 	   -1.2424230000
H   	    0.5694230000 	    0.7024480000 	    1.8463860000
H   	   -1.4773860000 	    2.0489760000 	    0.6033510000
H   	   -3.8105470000 	    1.5994970000 	   -0.0941830000
H   	   -4.4979690000 	   -0.7008290000 	   -0.7284060000
H   	   -2.8411450000 	   -2.5475610000 	   -0.6519670000
H   	   -0.5088780000 	   -2.0954300000 	    0.0642380000
