21
tauto -570.476065104
O   	    3.3201650000 	   -1.7358980000 	   -0.2959640000
C   	    2.6748820000 	   -0.7187270000 	   -0.1218710000
N   	    1.2674330000 	   -0.7655420000 	   -0.1283190000
C   	    0.4507370000 	    0.3100800000 	    0.0520040000
C   	   -1.0167140000 	    0.0790370000 	    0.0290530000
C   	   -1.8562000000 	    1.1545860000 	   -0.2712890000
C   	   -3.2323210000 	    0.9756820000 	   -0.3112870000
C   	   -3.7839660000 	   -0.2751300000 	   -0.0437500000
C   	   -2.9539350000 	   -1.3461150000 	    0.2717400000
C   	   -1.5750040000 	   -1.1707830000 	    0.3082200000
N   	    0.9130830000 	    1.5124750000 	    0.2324980000
C   	    2.2795480000 	    1.6455550000 	    0.2414280000
C   	    3.1630760000 	    0.6286090000 	    0.0921120000
H   	    0.8782910000 	   -1.6776860000 	   -0.3312230000
H   	   -1.4078220000 	    2.1231970000 	   -0.4687030000
H   	   -3.8782770000 	    1.8152650000 	   -0.5534720000
H   	   -4.8614370000 	   -0.4139090000 	   -0.0753550000
H   	   -3.3796120000 	   -2.3199370000 	    0.4974000000
H   	   -0.9460360000 	   -2.0120440000 	    0.5923300000
H   	    2.6339260000 	    2.6636710000 	    0.3884730000
H   	    4.2354080000 	    0.7833370000 	    0.1108390000
