23
tauto -496.71057931
O   	   -0.4872680000 	    2.0268060000 	   -0.0002940000
C   	   -0.9829310000 	    0.9201990000 	   -0.0001620000
N   	   -2.3389090000 	    0.6397260000 	    0.0001120000
C   	   -2.5059120000 	   -0.7416100000 	    0.0000200000
N   	   -1.4333720000 	   -1.4252790000 	    0.0000530000
C   	   -0.3195390000 	   -0.4655720000 	   -0.0000270000
C   	    0.5327080000 	   -0.6729780000 	   -1.2650980000
C   	    1.8084960000 	    0.1716330000 	   -1.2602070000
C   	    2.6366970000 	   -0.0870180000 	    0.0001190000
C   	    1.8083140000 	    0.1719640000 	    1.2602600000
C   	    0.5325590000 	   -0.6726920000 	    1.2652060000
H   	   -3.0614440000 	    1.3430070000 	   -0.0002250000
H   	   -3.5065990000 	   -1.1663960000 	    0.0001000000
H   	   -0.0759500000 	   -0.4612360000 	   -2.1531250000
H   	    0.7837460000 	   -1.7411100000 	   -1.3005970000
H   	    1.5441330000 	    1.2345640000 	   -1.3092670000
H   	    2.3948280000 	   -0.0584050000 	   -2.1579420000
H   	    3.5322370000 	    0.5456670000 	    0.0001000000
H   	    2.9849480000 	   -1.1307540000 	    0.0002840000
H   	    1.5439140000 	    1.2349040000 	    1.3089840000
H   	    2.3945300000 	   -0.0577980000 	    2.1581420000
H   	   -0.0762190000 	   -0.4607700000 	    2.1531080000
H   	    0.7836300000 	   -1.7408060000 	    1.3009690000
