11
tauto -339.474385277
O   	   -2.2708520000 	    0.0045690000 	   -0.0000580000
C   	   -1.0564770000 	    0.0669220000 	   -0.0000800000
N   	   -0.2795610000 	   -1.1089370000 	    0.0000560000
C   	    1.0780530000 	   -1.1204950000 	   -0.0000010000
N   	    1.8179370000 	   -0.0618350000 	   -0.0000860000
C   	    1.1310840000 	    1.1343930000 	    0.0000140000
C   	   -0.2183050000 	    1.2529070000 	    0.0000670000
H   	   -0.8017390000 	   -1.9764850000 	    0.0004100000
H   	    1.5442950000 	   -2.1042410000 	   -0.0000160000
H   	    1.7626270000 	    2.0199360000 	    0.0000800000
H   	   -0.7131280000 	    2.2172810000 	    0.0002000000
