33
tauto -802.675737536
C   	   -0.1145730000 	    4.0002690000 	   -1.0187240000
C   	   -0.0798860000 	    2.6646930000 	   -0.3555590000
N   	   -0.0833140000 	    2.5735550000 	    1.0358760000
C   	   -0.0472470000 	    1.2466560000 	    1.4085720000
O   	   -0.0495120000 	    0.8295060000 	    2.5456400000
N   	   -0.0441760000 	    1.5419550000 	   -0.9579930000
C   	   -0.0126510000 	    0.4857790000 	    0.0626000000
C   	    1.2733790000 	   -0.3403040000 	   -0.0884090000
C   	    1.8923210000 	   -0.9472430000 	    1.0042690000
C   	    3.0275890000 	   -1.7324160000 	    0.8190600000
C   	    3.5527830000 	   -1.9217500000 	   -0.4540220000
C   	    2.9349240000 	   -1.3192810000 	   -1.5465760000
C   	    1.8023360000 	   -0.5340550000 	   -1.3661370000
C   	   -1.2411380000 	   -0.4258210000 	   -0.0642670000
C   	   -2.0173130000 	   -0.4088440000 	   -1.2221920000
C   	   -3.1055400000 	   -1.2683150000 	   -1.3498410000
C   	   -3.4283560000 	   -2.1492680000 	   -0.3239550000
C   	   -2.6550290000 	   -2.1671550000 	    0.8338510000
C   	   -1.5656860000 	   -1.3137110000 	    0.9635770000
H   	    0.7515150000 	    4.6016200000 	   -0.7218120000
H   	   -1.0205580000 	    4.5481290000 	   -0.7378540000
H   	   -0.1001160000 	    3.8598170000 	   -2.1002100000
H   	   -0.1173630000 	    3.3360180000 	    1.6954090000
H   	    1.4945510000 	   -0.7988840000 	    2.0038150000
H   	    3.5027490000 	   -2.1958260000 	    1.6801920000
H   	    4.4395900000 	   -2.5344850000 	   -0.5954340000
H   	    3.3376450000 	   -1.4601030000 	   -2.5466850000
H   	    1.3223440000 	   -0.0565340000 	   -2.2148260000
H   	   -1.7625820000 	    0.2811130000 	   -2.0203540000
H   	   -3.7020510000 	   -1.2465470000 	   -2.2587510000
H   	   -4.2780480000 	   -2.8199810000 	   -0.4245390000
H   	   -2.9004900000 	   -2.8505920000 	    1.6429070000
H   	   -0.9741470000 	   -1.3237740000 	    1.8743680000
