21
tauto -607.577782097
O   	   -3.2126660000 	    1.8304750000 	   -0.6661750000
C   	   -2.6713390000 	    0.8116420000 	   -0.3179470000
C   	   -3.3140610000 	   -0.5020830000 	    0.1009390000
O   	   -2.2302150000 	   -1.3726740000 	    0.4085110000
N   	   -1.3228450000 	    0.5654260000 	   -0.2066830000
C   	   -1.0509770000 	   -0.7359630000 	    0.2175770000
N   	    0.0490730000 	   -1.3188730000 	    0.4035360000
C   	    1.2455170000 	   -0.5957990000 	    0.2130720000
C   	    2.1511460000 	   -1.0303820000 	   -0.7590320000
C   	    3.3512040000 	   -0.3567620000 	   -0.9484650000
C   	    3.6723340000 	    0.7501100000 	   -0.1651360000
C   	    2.7818240000 	    1.1752750000 	    0.8149450000
C   	    1.5744740000 	    0.5085330000 	    1.0069750000
H   	   -3.9110760000 	   -0.9220700000 	   -0.7135810000
H   	   -3.9459020000 	   -0.3673610000 	    0.9833850000
H   	   -0.5987060000 	    1.2365070000 	   -0.4209920000
H   	    1.8964220000 	   -1.9017810000 	   -1.3558160000
H   	    4.0448580000 	   -0.7019450000 	   -1.7111150000
H   	    4.6150610000 	    1.2701090000 	   -0.3116020000
H   	    3.0277790000 	    2.0282240000 	    1.4428070000
H   	    0.8902790000 	    0.8226290000 	    1.7926840000
