25
tauto -552.065428173
N   	   -3.5671320000 	   -0.6349910000 	   -0.0937920000
C   	   -2.2297690000 	   -0.3173100000 	   -0.0061530000
N   	   -1.8684430000 	    1.0303530000 	    0.0608060000
N   	   -1.2589920000 	   -1.1457520000 	   -0.0211420000
C   	   -0.0232500000 	   -0.3566230000 	   -0.0070260000
C   	    0.8031230000 	   -0.6509790000 	   -1.2718610000
C   	    2.1848570000 	    0.0069320000 	   -1.2515170000
C   	    2.9629320000 	   -0.3792530000 	    0.0080380000
C   	    2.1695560000 	   -0.0266850000 	    1.2679840000
C   	    0.7919210000 	   -0.6928560000 	    1.2547100000
C   	   -0.4856560000 	    1.1103480000 	    0.0146280000
O   	    0.1586070000 	    2.1364680000 	   -0.0104410000
H   	   -4.1812170000 	   -0.0918910000 	    0.4982860000
H   	   -3.7186760000 	   -1.6308720000 	    0.0006620000
H   	   -2.4740270000 	    1.8220260000 	   -0.0959100000
H   	    0.2331320000 	   -0.3427680000 	   -2.1574430000
H   	    0.9039400000 	   -1.7429980000 	   -1.3269500000
H   	    2.0701780000 	    1.0967100000 	   -1.2864890000
H   	    2.7394450000 	   -0.2899760000 	   -2.1500300000
H   	    3.9367220000 	    0.1246100000 	    0.0204390000
H   	    3.1643750000 	   -1.4609790000 	   -0.0044940000
H   	    2.0496910000 	    1.0618060000 	    1.3280490000
H   	    2.7153800000 	   -0.3422870000 	    2.1654300000
H   	    0.2117390000 	   -0.4184940000 	    2.1450130000
H   	    0.9001540000 	   -1.7853470000 	    1.2730390000
