11
tauto -268.328603257
C   	   -1.8667370000 	    0.1496900000 	   -0.3127660000
C   	   -0.7551820000 	   -0.5885660000 	    0.4351570000
C   	    0.6284320000 	   -0.1254290000 	    0.0517710000
O   	    0.7542430000 	    1.2174090000 	    0.1369000000
O   	    1.5457270000 	   -0.8341860000 	   -0.2851010000
H   	   -2.8463250000 	   -0.2253090000 	   -0.0018760000
H   	   -1.7777410000 	    0.0033090000 	   -1.3941010000
H   	   -1.8269750000 	    1.2231790000 	   -0.1102660000
H   	   -0.7917600000 	   -1.6649450000 	    0.2519430000
H   	   -0.8662430000 	   -0.4298090000 	    1.5149570000
H   	    1.6702020000 	    1.4136200000 	   -0.1200230000
