30
tauto -763.359091689
O   	   -0.0471220000 	    1.7605370000 	    2.0593030000
C   	   -0.0365070000 	    1.8351560000 	    0.8512120000
N   	   -0.0565370000 	    3.0037890000 	    0.1144230000
C   	   -0.0473200000 	    2.6821050000 	   -1.2347580000
N   	   -0.0231680000 	    1.4404130000 	   -1.5053880000
C   	   -0.0079060000 	    0.7205260000 	   -0.2210610000
C   	    1.2667750000 	   -0.1307350000 	   -0.1305220000
C   	    1.9214840000 	   -0.3567280000 	    1.0795410000
C   	    3.0450240000 	   -1.1793220000 	    1.1239840000
C   	    3.5213960000 	   -1.7833560000 	   -0.0333770000
C   	    2.8669690000 	   -1.5611710000 	   -1.2424070000
C   	    1.7463770000 	   -0.7411010000 	   -1.2916160000
C   	   -1.2493280000 	   -0.1715470000 	   -0.0882940000
C   	   -1.5628840000 	   -0.7488250000 	    1.1441850000
C   	   -2.6647340000 	   -1.5871410000 	    1.2638750000
C   	   -3.4613290000 	   -1.8639600000 	    0.1556380000
C   	   -3.1493960000 	   -1.2925540000 	   -1.0725230000
C   	   -2.0484430000 	   -0.4484790000 	   -1.1961730000
H   	   -0.0840070000 	    3.9247650000 	    0.5240320000
H   	   -0.0579190000 	    3.4709020000 	   -1.9821410000
H   	    1.5597740000 	    0.1134870000 	    1.9891560000
H   	    3.5486060000 	   -1.3441850000 	    2.0732990000
H   	    4.3984540000 	   -2.4246270000 	    0.0043890000
H   	    3.2314180000 	   -2.0284940000 	   -2.1538880000
H   	    1.2385520000 	   -0.5606760000 	   -2.2342160000
H   	   -0.9514700000 	   -0.5275560000 	    2.0142320000
H   	   -2.9004990000 	   -2.0277950000 	    2.2292700000
H   	   -4.3207170000 	   -2.5229530000 	    0.2506870000
H   	   -3.7640970000 	   -1.5027220000 	   -1.9443920000
H   	   -1.8042590000 	   -0.0010700000 	   -2.1543210000
