29
tauto -783.211443166
O   	    1.2448320000 	    2.9151910000 	   -0.2267030000
C   	    0.5604730000 	    1.7578770000 	   -0.1176020000
C   	    1.0131090000 	    0.4753550000 	   -0.0141470000
C   	    2.3315110000 	   -0.1429830000 	    0.0184290000
C   	    2.5173140000 	   -1.4634830000 	   -0.4085170000
C   	    3.7835380000 	   -2.0328020000 	   -0.3941580000
C   	    4.8849500000 	   -1.2950600000 	    0.0349670000
C   	    4.7072400000 	    0.0148190000 	    0.4683690000
C   	    3.4395640000 	    0.5861370000 	    0.4697930000
O   	   -0.1123130000 	   -0.3188300000 	    0.0233800000
C   	   -1.1511490000 	    0.5355430000 	   -0.0313370000
C   	   -2.5081230000 	   -0.0138290000 	    0.0153870000
C   	   -3.5957970000 	    0.8603480000 	   -0.0568600000
C   	   -4.8895880000 	    0.3585550000 	   -0.0120350000
C   	   -5.1052930000 	   -1.0130210000 	    0.1047650000
C   	   -4.0215580000 	   -1.8839530000 	    0.1765000000
C   	   -2.7238310000 	   -1.3885380000 	    0.1322960000
N   	   -0.8069170000 	    1.7859250000 	   -0.1183860000
H   	    2.1491370000 	    2.7101730000 	   -0.5011570000
H   	    1.6605230000 	   -2.0358680000 	   -0.7530620000
H   	    3.9138160000 	   -3.0593850000 	   -0.7270530000
H   	    5.8746990000 	   -1.7434320000 	    0.0397300000
H   	    5.5565680000 	    0.5918480000 	    0.8249450000
H   	    3.3018680000 	    1.5882850000 	    0.8718140000
H   	   -3.4079690000 	    1.9263650000 	   -0.1477740000
H   	   -5.7338930000 	    1.0405620000 	   -0.0676490000
H   	   -6.1191240000 	   -1.4034050000 	    0.1407130000
H   	   -4.1869950000 	   -2.9540000000 	    0.2694290000
H   	   -1.8745160000 	   -2.0632980000 	    0.1902440000
