14
tauto -378.77554806
C   	    2.4547000000 	   -0.8705460000 	    0.0022950000
C   	    1.1210110000 	   -0.1804800000 	   -0.0052380000
N   	    1.1154870000 	    1.1540780000 	   -0.0036210000
C   	   -0.0909710000 	    1.7303470000 	    0.0009400000
C   	   -1.2730850000 	    1.0169870000 	    0.0029510000
C   	   -1.1361160000 	   -0.3771030000 	    0.0000390000
O   	   -2.1943980000 	   -1.2077310000 	    0.0003130000
N   	    0.0428240000 	   -0.9737220000 	   -0.0037900000
H   	    3.2568310000 	   -0.1419320000 	   -0.1240650000
H   	    2.4961040000 	   -1.6186570000 	   -0.7943750000
H   	    2.5928360000 	   -1.3990140000 	    0.9514750000
H   	   -0.1036750000 	    2.8194450000 	    0.0023300000
H   	   -2.2409130000 	    1.5098940000 	    0.0053540000
H   	   -3.0074090000 	   -0.6856090000 	    0.0027310000
