20
tauto -532.406804169
C   	    3.3113440000 	   -1.1232300000 	    0.0000270000
C   	    1.9059720000 	   -0.5989130000 	   -0.0003850000
N   	    1.7788770000 	    0.7737850000 	   -0.0007870000
N   	    0.9032210000 	   -1.4039180000 	    0.0000830000
C   	   -0.3711430000 	   -0.8364890000 	    0.0001910000
C   	   -1.4835580000 	   -1.6932690000 	    0.0004420000
C   	   -2.7624420000 	   -1.1700890000 	    0.0001680000
C   	   -2.9716170000 	    0.2176430000 	   -0.0003590000
C   	   -1.8876530000 	    1.0731680000 	   -0.0004030000
C   	   -0.5887840000 	    0.5508550000 	   -0.0001460000
C   	    0.5648730000 	    1.4577240000 	   -0.0000410000
O   	    0.5300730000 	    2.6743080000 	    0.0009240000
H   	    3.8545470000 	   -0.7793250000 	    0.8873960000
H   	    3.8560150000 	   -0.7772730000 	   -0.8856090000
H   	    3.2805710000 	   -2.2128500000 	   -0.0010740000
H   	    2.6036310000 	    1.3603890000 	    0.0002090000
H   	   -1.3041290000 	   -2.7642890000 	    0.0008390000
H   	   -3.6168980000 	   -1.8424150000 	    0.0002890000
H   	   -3.9827720000 	    0.6149990000 	   -0.0007990000
H   	   -2.0081940000 	    2.1528340000 	   -0.0006840000
