15
tauto -562.189268576
O   	   -1.9042800000 	    1.9692990000 	    0.0000240000
N   	   -0.7704500000 	    1.3589960000 	   -0.0000180000
C   	   -0.7456720000 	   -0.0275410000 	   -0.0000260000
C   	    0.3631720000 	   -0.8354690000 	   -0.0000620000
N   	   -0.0299720000 	   -2.1524120000 	    0.0000820000
C   	   -1.3362790000 	   -2.1094980000 	   -0.0000160000
N   	   -1.8319760000 	   -0.8284810000 	    0.0000040000
H   	   -2.7833300000 	   -0.4863510000 	    0.0000130000
C   	    0.4166740000 	    1.9217330000 	    0.0000360000
N   	    1.5651150000 	    1.1738660000 	   -0.0000040000
C   	    1.6894360000 	   -0.2372140000 	   -0.0001890000
O   	    2.7804030000 	   -0.7626230000 	    0.0000880000
H   	   -1.9909790000 	   -2.9710210000 	    0.0000090000
H   	    0.4636270000 	    3.0018360000 	    0.0001200000
H   	    2.4486920000 	    1.6662870000 	    0.0000580000
