18
tauto -601.606141021
C   	    1.7846510000 	    1.9069490000 	    0.0001990000
N   	    1.1956390000 	    0.5818610000 	   -0.0001240000
C   	   -0.1520190000 	    0.2494620000 	   -0.0000080000
C   	   -0.2502700000 	   -1.1203320000 	    0.0000100000
N   	    1.0273980000 	   -1.6167430000 	   -0.0000350000
N   	   -1.3913900000 	   -1.8587460000 	    0.0000610000
C   	   -2.4636300000 	   -1.1298390000 	    0.0000610000
N   	   -2.4703170000 	    0.2311580000 	    0.0000280000
C   	   -1.3265100000 	    1.0650150000 	   -0.0000230000
O   	   -1.4360180000 	    2.2811850000 	   -0.0001400000
C   	    1.9590110000 	   -0.5714740000 	   -0.0001000000
O   	    3.1701360000 	   -0.6570510000 	   -0.0000270000
H   	    0.9741490000 	    2.6365970000 	   -0.0002350000
H   	    2.4086010000 	    2.0392260000 	   -0.8879280000
H   	    2.4076530000 	    2.0392810000 	    0.8889910000
H   	    1.2901340000 	   -2.5894300000 	    0.0000570000
H   	   -3.4387020000 	   -1.6100540000 	    0.0000950000
H   	   -3.3514850000 	    0.7299120000 	    0.0000080000
