17
tauto -418.094622053
C   	    2.6450570000 	   -0.7287010000 	    0.0001430000
C   	    1.1613300000 	   -0.5102610000 	    0.0000350000
C   	    0.2233290000 	   -1.5228560000 	   -0.0000440000
N   	   -1.1047640000 	   -1.3270350000 	   -0.0001700000
C   	   -1.5091820000 	   -0.0626670000 	   -0.0002210000
C   	   -2.9860760000 	    0.2094030000 	    0.0001890000
N   	   -0.7012000000 	    1.0104860000 	   -0.0001310000
C   	    0.5985000000 	    0.7759080000 	   -0.0000150000
O   	    1.4251370000 	    1.8345920000 	   -0.0000200000
H   	    2.8775550000 	   -1.7979650000 	   -0.0002380000
H   	    3.1107300000 	   -0.2741370000 	    0.8810810000
H   	    3.1109550000 	   -0.2734500000 	   -0.8803190000
H   	    0.5512150000 	   -2.5630600000 	   -0.0000500000
H   	   -3.5386790000 	   -0.7312460000 	   -0.0031180000
H   	   -3.2617330000 	    0.7999960000 	   -0.8793640000
H   	   -3.2622440000 	    0.7936410000 	    0.8838620000
H   	    0.8551070000 	    2.6203740000 	   -0.0001070000
