18
tauto -493.299379435
C   	   -3.8121600000 	   -0.4969420000 	    0.0003520000
C   	   -2.5651000000 	    0.3585710000 	   -0.0000960000
O   	   -1.4402820000 	   -0.5414060000 	   -0.0004830000
C   	   -0.2335860000 	    0.0155130000 	   -0.0001750000
N   	    0.7657310000 	   -0.9054910000 	    0.0001390000
N   	   -0.0493870000 	    1.2973500000 	   -0.0000770000
C   	    1.2674250000 	    1.6957060000 	    0.0000890000
C   	    2.3369990000 	    0.8650650000 	    0.0001180000
C   	    2.1364850000 	   -0.5724520000 	    0.0000060000
O   	    2.9779130000 	   -1.4497770000 	    0.0000650000
H   	   -4.6987370000 	    0.1446980000 	    0.0007140000
H   	   -3.8464760000 	   -1.1344120000 	    0.8886350000
H   	   -3.8471390000 	   -1.1343880000 	   -0.8879120000
H   	   -2.4994850000 	    1.0003540000 	    0.8836100000
H   	   -2.5001140000 	    1.0003270000 	   -0.8838760000
H   	    0.5314510000 	   -1.8904210000 	   -0.0002530000
H   	    1.4089650000 	    2.7741440000 	    0.0001480000
H   	    3.3557060000 	    1.2333850000 	    0.0000860000
