15
tauto -562.215271028
O   	    2.9177040000 	    0.1353330000 	   -0.0001380000
N   	    1.5570290000 	    0.3093590000 	   -0.0000660000
C   	    1.0825050000 	    1.5743320000 	    0.0000750000
N   	   -0.1851020000 	    1.8687540000 	    0.0000580000
C   	   -0.9699480000 	    0.7625190000 	   -0.0000030000
C   	   -0.5918100000 	   -0.5742480000 	    0.0000500000
N   	   -1.6919080000 	   -1.4024080000 	   -0.0000040000
C   	   -2.7057410000 	   -0.5843100000 	   -0.0000650000
N   	   -2.3357920000 	    0.7393680000 	   -0.0000780000
H   	   -2.9367390000 	    1.5493580000 	    0.0003230000
C   	    0.8052320000 	   -0.8922370000 	    0.0000310000
O   	    1.4246040000 	   -1.9465860000 	    0.0001100000
H   	    2.9717860000 	   -0.8502010000 	   -0.0000040000
H   	    1.8425280000 	    2.3498480000 	    0.0001610000
H   	   -3.7470610000 	   -0.8808250000 	   -0.0001510000
