13
tauto -394.83131085
N   	   -2.3353290000 	   -0.8315170000 	   -0.0640270000
C   	   -1.1386970000 	   -0.1668010000 	   -0.0059860000
N   	   -0.0089160000 	   -0.9281550000 	   -0.0057590000
N   	   -1.1247690000 	    1.1369860000 	    0.0037940000
C   	    0.1167160000 	    1.7136740000 	    0.0001680000
C   	    1.2993110000 	    1.0469760000 	    0.0112170000
C   	    1.3024300000 	   -0.3989970000 	    0.0047940000
O   	    2.2536570000 	   -1.1582990000 	   -0.0006610000
H   	   -2.3980770000 	   -1.7389500000 	    0.3732230000
H   	   -3.1282980000 	   -0.2275340000 	    0.0997520000
H   	   -0.0579480000 	   -1.9369400000 	   -0.0767410000
H   	    0.1052440000 	    2.8019260000 	   -0.0043180000
H   	    2.2543640000 	    1.5575840000 	    0.0141570000
