9
tauto -209.157916356
C   	    1.3596060000 	   -0.3434960000 	    0.0000040000
C   	   -0.0762650000 	    0.1459420000 	    0.0000720000
N   	   -1.0313560000 	   -0.8276890000 	    0.0000010000
O   	   -0.3569390000 	    1.3303390000 	   -0.0000450000
H   	    1.4564870000 	   -1.4330520000 	    0.0000020000
H   	    1.8646570000 	    0.0605270000 	    0.8813430000
H   	    1.8645890000 	    0.0605220000 	   -0.8813790000
H   	   -0.8123830000 	   -1.8091200000 	   -0.0000110000
H   	   -1.9983940000 	   -0.5424410000 	   -0.0000570000
