14
tauto -378.775548058
C   	    2.4547000000 	   -0.8705450000 	    0.0022950000
C   	    1.1210110000 	   -0.1804800000 	   -0.0052360000
N   	    1.1154870000 	    1.1540790000 	   -0.0036200000
C   	   -0.0909720000 	    1.7303470000 	    0.0009400000
C   	   -1.2730860000 	    1.0169870000 	    0.0029500000
C   	   -1.1361150000 	   -0.3771030000 	    0.0000380000
O   	   -2.1943980000 	   -1.2077320000 	    0.0003140000
N   	    0.0428250000 	   -0.9737220000 	   -0.0037890000
H   	    3.2568350000 	   -0.1419250000 	   -0.1239980000
H   	    2.4961270000 	   -1.6186040000 	   -0.7944250000
H   	    2.5928070000 	   -1.3990780000 	    0.9514420000
H   	   -0.1036760000 	    2.8194450000 	    0.0023300000
H   	   -2.2409140000 	    1.5098930000 	    0.0053520000
H   	   -3.0074090000 	   -0.6856100000 	    0.0027310000
