12
tauto -248.452096514
C   	    0.9083000000 	    1.3073110000 	   -0.0000270000
C   	    0.5979400000 	   -0.1770420000 	   -0.0000720000
N   	   -0.7026740000 	   -0.5961920000 	   -0.0001180000
C   	   -1.9432240000 	    0.1464090000 	    0.0000600000
O   	    1.5061270000 	   -0.9932850000 	    0.0000790000
H   	    0.0481430000 	    1.9779550000 	   -0.0015900000
H   	    1.5225730000 	    1.5188620000 	   -0.8792400000
H   	    1.5198110000 	    1.5194800000 	    0.8809790000
H   	   -0.7692060000 	   -1.6051020000 	   -0.0000890000
H   	   -1.7487390000 	    1.2185610000 	    0.0003360000
H   	   -2.5404700000 	   -0.0853110000 	    0.8896990000
H   	   -2.5405020000 	   -0.0848870000 	   -0.8896690000
