18
tauto -547.44442363
C   	    3.5671190000 	   -0.2270540000 	   -0.0250880000
C   	    2.0667150000 	   -0.2343910000 	   -0.0259950000
N   	    1.4481420000 	   -1.4060940000 	   -0.1594760000
C   	    0.1111950000 	   -1.3613140000 	   -0.1590510000
N   	    1.4629910000 	    0.9539640000 	    0.1086100000
C   	    0.1382170000 	    0.9720930000 	    0.1036990000
O   	   -0.4580660000 	    2.1516620000 	    0.2621990000
C   	   -0.6308850000 	   -0.1996820000 	   -0.0267500000
C   	   -2.1271330000 	   -0.1849830000 	   -0.0994320000
N   	   -2.7303750000 	   -1.2833430000 	    0.4634440000
O   	   -2.7540900000 	    0.6915570000 	   -0.6592180000
H   	    3.9482720000 	   -1.2422910000 	   -0.1422830000
H   	    3.9403140000 	    0.2018000000 	    0.9102560000
H   	    3.9377970000 	    0.4018330000 	   -0.8406500000
H   	   -0.3986240000 	   -2.3150280000 	   -0.2936980000
H   	    0.2573950000 	    2.8037280000 	    0.3433010000
H   	   -2.2656520000 	   -1.7902200000 	    1.2009840000
H   	   -3.7389260000 	   -1.2452810000 	    0.5058900000
