23
tauto -645.917354027
C   	    4.0758080000 	    0.0780920000 	    0.9400470000
C   	    3.4485230000 	    0.3356550000 	   -0.4165440000
O   	    2.0263670000 	    0.5271000000 	   -0.3045620000
C   	    1.2898800000 	   -0.5841600000 	   -0.2337650000
C   	   -0.1698630000 	   -0.3207390000 	   -0.1166800000
C   	   -1.0174700000 	   -1.4196310000 	   -0.0401870000
N   	   -2.3437450000 	   -1.3421660000 	    0.0668520000
C   	   -2.8495890000 	   -0.1071110000 	    0.1010570000
C   	   -4.3366000000 	    0.0365480000 	    0.2361030000
N   	   -2.1412350000 	    1.0243720000 	    0.0355650000
C   	   -0.8208650000 	    0.9250020000 	   -0.0723050000
O   	   -0.1458160000 	    2.0723550000 	   -0.1365760000
O   	    1.7476170000 	   -1.7069590000 	   -0.2647250000
H   	    5.1642200000 	    0.0113560000 	    0.8396210000
H   	    3.7100150000 	   -0.8638930000 	    1.3571300000
H   	    3.8412490000 	    0.8911560000 	    1.6337850000
H   	    3.6408010000 	   -0.4900960000 	   -1.1063140000
H   	    3.8096940000 	    1.2682360000 	   -0.8556580000
H   	   -0.5766220000 	   -2.4138840000 	   -0.0706480000
H   	   -4.8185000000 	   -0.9365690000 	    0.1339550000
H   	   -4.7198460000 	    0.7287680000 	   -0.5189710000
H   	   -4.5795480000 	    0.4575630000 	    1.2176490000
H   	   -0.8208910000 	    2.7700190000 	   -0.0869290000
