11
tauto -285.328058408
O   	   -2.0479310000 	    0.0111440000 	   -0.0013000000
C   	   -0.8363300000 	    0.0140790000 	    0.0003190000
N   	   -0.0220930000 	   -1.1014310000 	    0.0021980000
C   	    1.3349640000 	   -0.7440630000 	   -0.0007340000
C   	    1.4826060000 	    0.5824930000 	   -0.0010900000
C   	    0.1160930000 	    1.2132170000 	    0.0008260000
H   	   -0.3905850000 	   -2.0388710000 	   -0.0029740000
H   	    2.0910500000 	   -1.5194950000 	   -0.0011600000
H   	    2.4227610000 	    1.1173570000 	   -0.0019320000
H   	   -0.0857170000 	    1.8357700000 	   -0.8785350000
H   	   -0.0834150000 	    1.8317440000 	    0.8836820000
