33
tauto -743.954297075
C   	   -4.9927170000 	   -0.8430480000 	    0.8616230000
C   	   -4.3442350000 	   -0.8612890000 	   -0.5087670000
O   	   -2.9064800000 	   -0.8084360000 	   -0.4054980000
C   	   -2.3819210000 	    0.3923860000 	   -0.2142200000
C   	   -0.8850360000 	    0.3639900000 	   -0.1181340000
N   	   -0.2509930000 	    1.5684500000 	    0.0847670000
N   	   -0.1348960000 	   -0.6629390000 	   -0.2036670000
C   	    1.2488700000 	   -0.1780400000 	   -0.0455360000
C   	    2.0332510000 	   -0.5407310000 	   -1.3213530000
C   	    3.5434100000 	   -0.3311810000 	   -1.1904440000
C   	    4.1056070000 	   -1.0688370000 	    0.0270320000
C   	    3.3743040000 	   -0.6693920000 	    1.3108900000
C   	    1.8640270000 	   -0.8781590000 	    1.1813410000
C   	    1.1166330000 	    1.3491560000 	    0.1504100000
N   	    1.9403330000 	    2.2996300000 	    0.3355140000
O   	   -2.9956180000 	    1.4331040000 	   -0.1243620000
H   	   -6.0750380000 	   -0.9725370000 	    0.7587790000
H   	   -4.8066180000 	    0.1101150000 	    1.3636400000
H   	   -4.6048290000 	   -1.6564990000 	    1.4819420000
H   	   -4.6831150000 	   -0.0226140000 	   -1.1227650000
H   	   -4.5366340000 	   -1.7986500000 	   -1.0342060000
H   	   -0.7068600000 	    2.4636950000 	    0.1722500000
H   	    1.6303790000 	    0.0268150000 	   -2.1686000000
H   	    1.8256420000 	   -1.5998550000 	   -1.5204910000
H   	    3.7709730000 	    0.7409340000 	   -1.1189690000
H   	    4.0339060000 	   -0.6822540000 	   -2.1058190000
H   	    5.1806600000 	   -0.8778950000 	    0.1260580000
H   	    3.9891290000 	   -2.1511880000 	   -0.1275020000
H   	    3.5907560000 	    0.3791740000 	    1.5558480000
H   	    3.7458710000 	   -1.2585870000 	    2.1573950000
H   	    1.3432970000 	   -0.5465540000 	    2.0874930000
H   	    1.6501680000 	   -1.9482540000 	    1.0647550000
H   	    2.8948180000 	    1.9517020000 	    0.3557110000
