18
tauto -473.194173411
N   	    1.7405400000 	    2.3413320000 	    0.0000420000
C   	    1.2231090000 	    1.1822070000 	   -0.0000100000
C   	   -0.1871630000 	    0.6990830000 	   -0.0000120000
C   	   -0.1685110000 	   -0.6925150000 	   -0.0000020000
C   	   -1.3374280000 	   -1.4341030000 	    0.0000040000
C   	   -2.5444710000 	   -0.7370260000 	    0.0000090000
C   	   -2.5676340000 	    0.6602630000 	   -0.0000010000
C   	   -1.3842650000 	    1.3976260000 	   -0.0000140000
N   	    1.9947450000 	    0.0210130000 	   -0.0000710000
C   	    1.2435530000 	   -1.1532000000 	   -0.0000060000
N   	    1.6093260000 	   -2.3695570000 	    0.0000320000
H   	    1.0087150000 	    3.0509050000 	    0.0000800000
H   	   -1.2986210000 	   -2.5195660000 	    0.0000120000
H   	   -3.4827760000 	   -1.2854210000 	    0.0000190000
H   	   -3.5225270000 	    1.1790950000 	    0.0000030000
H   	   -1.4090420000 	    2.4851600000 	   -0.0000220000
H   	    3.0022090000 	    0.0626140000 	    0.0000680000
H   	    2.6266290000 	   -2.4563020000 	    0.0000120000
