17
tauto -414.222313975
C   	    3.1670510000 	   -0.2566620000 	   -0.0113870000
N   	    1.9137960000 	   -0.9829760000 	   -0.0032630000
C   	    0.8317080000 	   -0.3049190000 	    0.0092000000
N   	   -0.3793010000 	   -1.0228540000 	    0.0247200000
C   	   -1.4948750000 	   -0.3940080000 	   -0.0022010000
N   	   -2.6970490000 	   -1.0815000000 	   -0.0867000000
N   	   -1.6312810000 	    0.9813660000 	    0.0141690000
C   	   -0.4815420000 	    1.7507360000 	    0.0003310000
C   	    0.7243180000 	    1.1687370000 	    0.0185580000
H   	    3.9926650000 	   -0.9743480000 	   -0.0145740000
H   	    3.2931880000 	    0.3853220000 	    0.8746150000
H   	    3.2827420000 	    0.3814890000 	   -0.9013120000
H   	   -2.5382090000 	   -2.0770320000 	    0.0057260000
H   	   -3.4205940000 	   -0.7538030000 	    0.5408460000
H   	   -2.5132420000 	    1.3869670000 	   -0.2577920000
H   	   -0.6347420000 	    2.8251380000 	   -0.0095790000
H   	    1.6150730000 	    1.7847040000 	    0.0325810000
