16
tauto -434.120139019
C   	    2.8449890000 	   -0.7496670000 	    0.0002330000
N   	    2.0973660000 	    0.4898860000 	    0.0002780000
C   	    0.8284750000 	    0.4088440000 	   -0.0002450000
N   	    0.0762710000 	    1.5795210000 	   -0.0003920000
C   	   -1.2893330000 	    1.5964700000 	    0.0001890000
C   	   -2.0244940000 	    0.4688800000 	    0.0001740000
N   	    0.0505290000 	   -0.7389660000 	   -0.0006980000
C   	   -1.3512050000 	   -0.8252960000 	   -0.0000700000
O   	   -1.8894970000 	   -1.9149360000 	    0.0002160000
H   	    3.9137600000 	   -0.5224620000 	   -0.0019790000
H   	    2.6397030000 	   -1.3668940000 	   -0.8890720000
H   	    2.6428340000 	   -1.3646740000 	    0.8917500000
H   	    0.6207710000 	    2.4283900000 	    0.0004970000
H   	   -1.7373750000 	    2.5851540000 	    0.0005070000
H   	   -3.1058210000 	    0.4844220000 	    0.0005360000
H   	    0.5223620000 	   -1.6329150000 	    0.0000320000
