22
tauto -699.858021991
O   	    4.4205620000 	   -0.4084980000 	   -0.0000030000
C   	    3.2192710000 	   -0.3212800000 	   -0.0002810000
C   	    2.4465560000 	    1.0161670000 	   -0.0000170000
N   	    2.3059860000 	   -1.3853940000 	   -0.0001130000
C   	    1.1296350000 	   -0.8379910000 	   -0.0000070000
N   	   -0.0421950000 	   -1.5128940000 	   -0.0000300000
C   	   -1.2788200000 	   -0.8691990000 	    0.0000570000
C   	   -1.3196900000 	    0.5310140000 	    0.0000850000
C   	   -2.5510280000 	    1.1878920000 	    0.0000530000
C   	   -3.7309000000 	    0.4635180000 	    0.0000310000
C   	   -3.6798760000 	   -0.9332460000 	    0.0000250000
C   	   -2.4664910000 	   -1.6033010000 	    0.0000340000
N   	    1.0774230000 	    0.5407630000 	    0.0001400000
C   	   -0.0672170000 	    1.3228910000 	    0.0002320000
O   	   -0.0062160000 	    2.5351490000 	   -0.0001780000
H   	    2.6681080000 	    1.6105820000 	   -0.8902040000
H   	    2.6683630000 	    1.6103980000 	    0.8902290000
H   	    0.0191310000 	   -2.5210580000 	    0.0000570000
H   	   -2.5444650000 	    2.2741650000 	    0.0000820000
H   	   -4.6885590000 	    0.9747900000 	    0.0000260000
H   	   -4.6020350000 	   -1.5081620000 	    0.0000030000
H   	   -2.4324650000 	   -2.6900480000 	    0.0000020000
