33
tauto -985.172016822
C   	    5.7674680000 	   -1.3948180000 	    0.2054680000
O   	    4.7359330000 	   -0.4127540000 	    0.0769030000
C   	    3.4805960000 	   -0.9002370000 	    0.0789310000
C   	    2.4682610000 	    0.1189980000 	   -0.0509580000
C   	    1.1155860000 	   -0.1692650000 	   -0.0113320000
N   	    0.4459940000 	   -1.3399390000 	    0.1118370000
C   	   -0.9222150000 	   -1.3309900000 	    0.1305340000
C   	   -1.6501400000 	   -0.1910820000 	    0.0221670000
C   	   -3.1334820000 	   -0.2514950000 	    0.0117610000
C   	   -3.9040980000 	    0.6876690000 	    0.7064050000
C   	   -5.2895870000 	    0.5808790000 	    0.7283130000
C   	   -5.9295720000 	   -0.4581030000 	    0.0578950000
C   	   -5.1734860000 	   -1.3879540000 	   -0.6476600000
C   	   -3.7873110000 	   -1.2796220000 	   -0.6754000000
C   	   -0.9740480000 	    1.1193100000 	   -0.0886350000
O   	   -1.5093040000 	    2.2009320000 	   -0.1527370000
N   	    0.4362130000 	    0.9969140000 	   -0.1111670000
N   	    1.2845330000 	    2.0742360000 	   -0.2153200000
C   	    2.4930240000 	    1.5468960000 	   -0.1857550000
N   	    3.6165050000 	    2.3161020000 	   -0.3271140000
O   	    3.2300210000 	   -2.0916030000 	    0.1917250000
H   	    6.7065400000 	   -0.8436550000 	    0.1565890000
H   	    5.7060770000 	   -2.1215530000 	   -0.6077090000
H   	    5.6785680000 	   -1.9186920000 	    1.1602760000
H   	    1.0150940000 	   -2.1743700000 	    0.2024970000
H   	   -1.3935530000 	   -2.3009350000 	    0.2494620000
H   	   -3.4131040000 	    1.5070320000 	    1.2200280000
H   	   -5.8737860000 	    1.3165800000 	    1.2751700000
H   	   -7.0135720000 	   -0.5364290000 	    0.0771830000
H   	   -5.6622870000 	   -2.1933450000 	   -1.1900220000
H   	   -3.2052070000 	   -1.9893440000 	   -1.2599230000
H   	    3.4849960000 	    3.2990760000 	   -0.1389670000
H   	    4.4683580000 	    1.9107370000 	    0.0302270000
