14
tauto -469.981706117
O   	    3.0337310000 	   -0.0614040000 	   -0.0002130000
N   	    1.9240260000 	   -0.9163580000 	   -0.0002690000
C   	    0.8364450000 	   -0.2388010000 	    0.0001580000
C   	    0.6768040000 	    1.2078640000 	    0.0006250000
C   	   -0.5615950000 	    1.7203850000 	    0.0001690000
N   	   -1.6847300000 	    0.9178000000 	   -0.0009490000
N   	   -0.3549350000 	   -0.9740990000 	    0.0000600000
C   	   -1.6330630000 	   -0.4691600000 	   -0.0001240000
O   	   -2.6310710000 	   -1.1602480000 	    0.0003360000
H   	    3.7686740000 	   -0.6856260000 	   -0.0004260000
H   	    1.5590840000 	    1.8309290000 	    0.0013180000
H   	   -0.7542730000 	    2.7880510000 	    0.0005530000
H   	   -2.6136990000 	    1.3091050000 	   -0.0004410000
H   	   -0.2831360000 	   -1.9823840000 	    0.0011490000
