17
tauto -414.241625932
C   	    2.8530370000 	   -0.8197360000 	    0.0264210000
N   	    2.0790540000 	    0.4005860000 	   -0.0440160000
C   	    0.7230590000 	    0.3918820000 	   -0.0141500000
C   	    0.0336820000 	    1.6661620000 	   -0.0037160000
C   	   -1.3156250000 	    1.6067260000 	    0.0107410000
N   	   -1.9504430000 	    0.4121170000 	    0.0130480000
N   	    0.1177770000 	   -0.7688560000 	   -0.0071020000
C   	   -1.2637500000 	   -0.8186230000 	   -0.0021400000
N   	   -1.9875020000 	   -1.8712500000 	   -0.0056690000
H   	    3.9085810000 	   -0.5733730000 	   -0.1094970000
H   	    2.5380520000 	   -1.5073030000 	   -0.7625690000
H   	    2.7186610000 	   -1.3295920000 	    0.9876770000
H   	    2.5483940000 	    1.2825140000 	    0.0747800000
H   	    0.5654260000 	    2.6099330000 	   -0.0130060000
H   	   -1.9487090000 	    2.4888120000 	    0.0200470000
H   	   -2.9569540000 	    0.3413870000 	    0.0212910000
H   	   -1.3680720000 	   -2.6790240000 	   -0.0154910000
