13
tauto -282.706558818
N   	    2.1189390000 	   -0.1312930000 	   -0.0028230000
C   	    0.8491760000 	   -0.0226300000 	   -0.0105810000
N   	    0.0374540000 	    1.1024230000 	    0.1786800000
C   	   -1.3419230000 	    0.7649830000 	   -0.1507240000
C   	   -1.3580030000 	   -0.7322590000 	    0.1724670000
N   	   -0.0048420000 	   -1.1012220000 	   -0.2034720000
H   	    2.5532240000 	    0.7769450000 	    0.1484260000
H   	    0.4048800000 	    1.9726310000 	   -0.1788200000
H   	   -1.5690900000 	    0.9295110000 	   -1.2140000000
H   	   -2.0513590000 	    1.3334220000 	    0.4572580000
H   	   -2.1051040000 	   -1.2772050000 	   -0.4116010000
H   	   -1.5581740000 	   -0.8910150000 	    1.2428110000
H   	    0.3692650000 	   -1.9942030000 	    0.0822520000
