15
tauto -396.047725712
N   	    2.2825430000 	   -1.1457390000 	    0.0979940000
C   	    1.2453230000 	   -0.4195160000 	   -0.0193370000
C   	    1.1816570000 	    1.0646710000 	   -0.3071440000
C   	   -0.0606160000 	    1.6895830000 	    0.3176740000
N   	   -1.2220990000 	    0.9398780000 	   -0.1261240000
N   	   -0.0000250000 	   -1.0260650000 	    0.0869360000
C   	   -1.2513570000 	   -0.4308560000 	   -0.0284730000
O   	   -2.2732410000 	   -1.0884400000 	   -0.0524670000
H   	    3.1219530000 	   -0.5771140000 	   -0.0005280000
H   	    1.1434210000 	    1.2017290000 	   -1.3948820000
H   	    2.0905980000 	    1.5457260000 	    0.0651690000
H   	   -0.1689170000 	    2.7270620000 	   -0.0096720000
H   	    0.0303160000 	    1.6899750000 	    1.4145810000
H   	   -2.1366720000 	    1.3535980000 	   -0.0197670000
H   	   -0.0077500000 	   -2.0332740000 	    0.1768690000
