25
tauto -627.044097314
C   	    4.1636020000 	    0.0757600000 	    0.9366260000
C   	    3.6446660000 	   -0.3643220000 	   -0.4330160000
N   	    2.4330090000 	   -1.1554090000 	   -0.3328960000
C   	    1.3096060000 	   -0.5676590000 	   -0.2335970000
N   	    0.1592730000 	   -1.3313940000 	   -0.1280660000
C   	   -1.1223580000 	   -0.8299630000 	   -0.0246720000
C   	   -1.3189140000 	    0.5562590000 	   -0.0219220000
C   	   -2.6062760000 	    1.0845420000 	    0.0834700000
C   	   -3.7008500000 	    0.2436640000 	    0.1841920000
C   	   -3.5001660000 	   -1.1407720000 	    0.1795990000
C   	   -2.2293900000 	   -1.6820490000 	    0.0768010000
N   	    1.0706990000 	    0.8061470000 	   -0.2207490000
C   	   -0.1552940000 	    1.4555330000 	   -0.1273240000
O   	   -0.2119570000 	    2.6700020000 	   -0.1321800000
H   	    5.1165250000 	    0.6073700000 	    0.8418640000
H   	    4.3159560000 	   -0.7988730000 	    1.5761790000
H   	    3.4523170000 	    0.7379310000 	    1.4443680000
H   	    4.4023530000 	   -0.9896580000 	   -0.9168870000
H   	    3.5230930000 	    0.5145460000 	   -1.0906440000
H   	    0.3229750000 	   -2.3272540000 	   -0.1428610000
H   	   -2.7116720000 	    2.1657600000 	    0.0825080000
H   	   -4.7035530000 	    0.6516710000 	    0.2664300000
H   	   -4.3531950000 	   -1.8101770000 	    0.2577370000
H   	   -2.0833360000 	   -2.7595900000 	    0.0747950000
H   	    1.8655710000 	    1.4268970000 	   -0.2850140000
