14
tauto -320.806454179
C   	    2.5037660000 	   -0.4785620000 	   -0.0000840000
C   	    1.0880230000 	   -0.0139110000 	   -0.0000800000
N   	    0.6875600000 	    1.2278420000 	    0.0000260000
N   	   -0.6875740000 	    1.2278420000 	    0.0000680000
C   	   -1.0880210000 	   -0.0139150000 	    0.0000040000
C   	   -2.5037630000 	   -0.4785690000 	   -0.0001030000
N   	    0.0000050000 	   -0.8446830000 	    0.0001560000
H   	    0.0000080000 	   -1.8527100000 	    0.0004190000
H   	    3.1507120000 	    0.4005540000 	   -0.0013900000
H   	    2.7314470000 	   -1.0800310000 	   -0.8869120000
H   	    2.7321030000 	   -1.0777920000 	    0.8880970000
H   	   -3.1507040000 	    0.4005510000 	    0.0002890000
H   	   -2.7317140000 	   -1.0792820000 	    0.8871700000
H   	   -2.7318290000 	   -1.0785550000 	   -0.8878400000
