14
tauto -487.028630054
O   	    3.0079670000 	   -0.6338730000 	   -0.0001680000
C   	    1.8693800000 	   -0.2148930000 	    0.0000360000
N   	    0.7764190000 	   -1.0794150000 	    0.0000480000
C   	   -0.5292330000 	   -0.6611440000 	    0.0000350000
N   	   -1.6253600000 	   -1.3618580000 	    0.0000580000
N   	   -2.6637100000 	   -0.4483280000 	    0.0001780000
C   	   -2.1633360000 	    0.7472350000 	   -0.0000310000
N   	   -0.7835570000 	    0.6843380000 	   -0.0000200000
C   	    0.2329380000 	    1.6281880000 	   -0.0000350000
C   	    1.5081240000 	    1.2191590000 	   -0.0000380000
H   	    0.9650390000 	   -2.0733760000 	   -0.0000440000
H   	   -2.7139390000 	    1.6776000000 	   -0.0000700000
H   	   -0.0777170000 	    2.6675450000 	   -0.0000850000
H   	    2.3290960000 	    1.9247920000 	   -0.0001020000
