32
tauto -963.343563371
C   	   -4.1811690000 	   -3.2350540000 	    0.0334760000
C   	   -3.7836530000 	   -1.7777530000 	    0.0709090000
N   	   -2.4284070000 	   -1.5641250000 	   -0.0768680000
C   	   -1.7363240000 	   -0.3526860000 	   -0.0781880000
N   	   -2.4454300000 	    0.7919890000 	    0.0783830000
C   	   -1.8942930000 	    2.1101250000 	    0.1005280000
O   	   -2.6259070000 	    3.0641760000 	    0.2440430000
N   	   -0.4466800000 	   -0.4281420000 	   -0.2322680000
C   	    0.1369750000 	    0.8027450000 	   -0.2149440000
C   	   -0.4609340000 	    2.0391970000 	   -0.0657470000
N   	    0.4787220000 	    3.0474840000 	   -0.1084100000
C   	    1.6075770000 	    2.4244270000 	   -0.2801570000
N   	    1.4736750000 	    1.0543120000 	   -0.3658070000
C   	    2.5297690000 	    0.0846810000 	   -0.4788260000
O   	    3.2247190000 	    0.0494350000 	    0.7439860000
C   	    4.5423440000 	   -0.4488130000 	    0.6626790000
C   	    4.6159370000 	   -1.9546400000 	    0.5059620000
O   	    4.1980880000 	   -2.2839030000 	   -0.8076640000
O   	   -4.5854190000 	   -0.8730390000 	    0.2196370000
H   	   -3.8867130000 	   -3.6935800000 	   -0.9162960000
H   	   -5.2629700000 	   -3.3017280000 	    0.1476340000
H   	   -3.6963150000 	   -3.7876700000 	    0.8451670000
H   	   -1.8132760000 	   -2.3574730000 	   -0.1955880000
H   	   -3.4545610000 	    0.7115130000 	    0.1894230000
H   	    2.5818190000 	    2.8924770000 	   -0.3534960000
H   	    3.2070560000 	    0.3744510000 	   -1.2942100000
H   	    2.0720320000 	   -0.8774730000 	   -0.7232480000
H   	    5.0270040000 	   -0.1589200000 	    1.6001480000
H   	    5.0846250000 	    0.0241140000 	   -0.1719460000
H   	    3.9698540000 	   -2.4201190000 	    1.2644340000
H   	    5.6529170000 	   -2.2788760000 	    0.6874520000
H   	    4.1461440000 	   -3.2440450000 	   -0.8788640000
