19
tauto -552.192204791
N   	    1.9865940000 	    2.6213280000 	    0.4776200000
C   	    1.5572770000 	    1.5557360000 	    0.3161200000
C   	    0.9804230000 	    0.2671950000 	    0.1020640000
C   	   -0.4994160000 	    0.1331030000 	    0.0744550000
C   	   -1.2804500000 	    1.1094440000 	   -0.5558720000
C   	   -2.6621590000 	    0.9838880000 	   -0.6080600000
C   	   -3.2927470000 	   -0.1221430000 	   -0.0405090000
C   	   -2.5304150000 	   -1.0899860000 	    0.6016900000
C   	   -1.1448810000 	   -0.9580310000 	    0.6708350000
C   	    1.8112760000 	   -0.7742270000 	   -0.1573840000
O   	    3.1352480000 	   -0.6564050000 	   -0.1096680000
O   	    1.4233270000 	   -2.0120660000 	   -0.4957300000
H   	   -0.7920060000 	    1.9727440000 	   -1.0015220000
H   	   -3.2518630000 	    1.7526330000 	   -1.1006880000
H   	   -4.3738500000 	   -0.2200540000 	   -0.0888140000
H   	   -3.0123210000 	   -1.9429600000 	    1.0726160000
H   	   -0.5659860000 	   -1.6851690000 	    1.2383940000
H   	    3.5273010000 	   -1.4896680000 	   -0.4099290000
H   	    0.4605210000 	   -2.0189270000 	   -0.6302510000
