20
tauto -511.531542714
C   	   -3.2149500000 	   -0.1269260000 	   -0.0001470000
C   	   -1.7623910000 	    0.2433120000 	   -0.0001540000
C   	   -1.3097080000 	    1.5096650000 	   -0.0003370000
N   	    0.0330340000 	    1.8303670000 	   -0.0003210000
C   	    0.9996960000 	    0.8552360000 	   -0.0000130000
N   	    2.2605000000 	    1.0363100000 	    0.0001010000
C   	    2.8595740000 	   -0.3049880000 	    0.0009190000
C   	    1.6945030000 	   -1.3379960000 	   -0.0001720000
N   	    0.5350200000 	   -0.4535650000 	    0.0002250000
C   	   -0.7843450000 	   -0.8642800000 	   -0.0000360000
O   	   -1.0800750000 	   -2.0475120000 	   -0.0001180000
H   	   -3.8501630000 	    0.7643550000 	   -0.0003190000
H   	   -3.4613830000 	   -0.7318760000 	    0.8786160000
H   	   -3.4613180000 	   -0.7321810000 	   -0.8787170000
H   	   -1.9818540000 	    2.3627400000 	   -0.0004970000
H   	    0.3483250000 	    2.7871950000 	   -0.0004350000
H   	    3.4982810000 	   -0.4224500000 	    0.8830860000
H   	    3.5003190000 	   -0.4227720000 	   -0.8797060000
H   	    1.6769010000 	   -1.9811820000 	    0.8846080000
H   	    1.6773330000 	   -1.9796580000 	   -0.8860940000
