15
tauto -420.552925978
O   	   -2.3447610000 	   -0.3208410000 	    0.1411950000
C   	   -1.0061410000 	   -0.4585170000 	    0.0174660000
C   	   -0.4007980000 	   -1.6597190000 	   -0.1748630000
C   	    1.0443140000 	   -1.5540990000 	   -0.3130110000
C   	    1.6209980000 	   -0.7461270000 	    0.5949050000
C   	    2.1328310000 	    0.5443930000 	    0.0784570000
C   	    1.0900440000 	    1.3141980000 	   -0.2629090000
C   	   -0.3731700000 	    0.9560360000 	   -0.0639070000
O   	   -1.1486910000 	    1.8865890000 	    0.0083400000
H   	   -2.7369010000 	   -1.2025830000 	    0.1953480000
H   	   -0.9932860000 	   -2.5524880000 	   -0.3798890000
H   	    1.4850490000 	   -1.6792090000 	   -1.3039160000
H   	    1.1757650000 	   -0.7016740000 	    1.5891500000
H   	    3.1648500000 	    0.8837720000 	    0.0252730000
H   	    1.2036660000 	    2.3492040000 	   -0.5790680000
