23
tauto -645.90693356
C   	    4.1142630000 	    0.0903180000 	    0.9155630000
C   	    3.4869220000 	    0.3109060000 	   -0.4477730000
O   	    2.0705160000 	    0.5331520000 	   -0.3368650000
C   	    1.3146750000 	   -0.5536340000 	   -0.2209100000
C   	   -0.1429190000 	   -0.2621730000 	   -0.1066250000
C   	   -0.9381180000 	   -1.3531170000 	   -0.0345420000
N   	   -2.2897560000 	   -1.2270190000 	    0.0677870000
C   	   -2.8616340000 	    0.0298810000 	    0.0920140000
C   	   -4.3597230000 	    0.0603380000 	    0.1900520000
N   	   -2.1789180000 	    1.1127920000 	    0.0336710000
C   	   -0.7607990000 	    1.0852100000 	   -0.0576460000
O   	   -0.1446450000 	    2.1266990000 	   -0.0871070000
O   	    1.7506600000 	   -1.6901570000 	   -0.2170470000
H   	    5.2014730000 	    0.0043850000 	    0.8157600000
H   	    3.7351760000 	   -0.8312400000 	    1.3653090000
H   	    3.8918310000 	    0.9305990000 	    1.5800370000
H   	    3.6627780000 	   -0.5420310000 	   -1.1085700000
H   	    3.8625180000 	    1.2216160000 	   -0.9189420000
H   	   -0.5223480000 	   -2.3555700000 	   -0.0573490000
H   	   -2.8739290000 	   -2.0480060000 	    0.1182730000
H   	   -4.7026880000 	   -0.4434870000 	    1.1007380000
H   	   -4.8171950000 	   -0.4406650000 	   -0.6705410000
H   	   -4.6851500000 	    1.1000610000 	    0.2124260000
