23
tauto -492.835729573
C   	   -3.3368700000 	    0.4539510000 	    0.0411620000
N   	   -2.1442780000 	   -0.3683070000 	   -0.0586930000
C   	   -2.3033440000 	   -1.8057230000 	    0.0114050000
C   	   -0.9112470000 	    0.2105710000 	   -0.0257220000
N   	    0.1645520000 	   -0.6235800000 	   -0.0150430000
N   	   -0.7926690000 	    1.5194180000 	   -0.0133080000
C   	    0.4862200000 	    1.9969330000 	   -0.0003140000
C   	    1.6202050000 	    1.2503310000 	    0.0043070000
C   	    1.5059000000 	   -0.1920850000 	   -0.0031300000
N   	    2.3877620000 	   -1.1172590000 	    0.0016860000
C   	    3.7735390000 	   -0.6956120000 	    0.0161570000
H   	   -4.0559070000 	    0.1582590000 	   -0.7305250000
H   	   -3.0544980000 	    1.4950790000 	   -0.1046080000
H   	   -3.8092760000 	    0.3451050000 	    1.0260980000
H   	   -3.3674360000 	   -2.0381710000 	   -0.0589760000
H   	   -1.9292280000 	   -2.2236680000 	    0.9567250000
H   	   -1.8026050000 	   -2.3104430000 	   -0.8247170000
H   	    0.0668590000 	   -1.6291280000 	   -0.0147030000
H   	    0.5566960000 	    3.0836640000 	    0.0076760000
H   	    2.5985160000 	    1.7144370000 	    0.0168380000
H   	    4.4161460000 	   -1.5810170000 	    0.0168580000
H   	    4.0255540000 	   -0.1031220000 	    0.9093130000
H   	    4.0411860000 	   -0.0930940000 	   -0.8656660000
