14
tauto -487.041304076
O   	   -1.3307240000 	    2.1494930000 	    0.0001130000
C   	   -1.0725130000 	    0.9725520000 	   -0.0002340000
N   	    0.2697920000 	    0.4928780000 	   -0.0000560000
N   	    1.3866800000 	    1.2705930000 	   -0.0000940000
C   	    2.3424040000 	    0.3717750000 	    0.0001650000
N   	    1.9518940000 	   -0.9403540000 	   -0.0000300000
C   	    0.6495880000 	   -0.8139770000 	   -0.0000280000
N   	   -0.3086170000 	   -1.7880920000 	    0.0000220000
C   	   -1.6306260000 	   -1.4290120000 	    0.0000420000
C   	   -2.0249700000 	   -0.1381170000 	    0.0000410000
H   	    3.3851220000 	    0.6611300000 	    0.0001930000
H   	   -0.0084050000 	   -2.7506190000 	   -0.0002020000
H   	   -2.3367530000 	   -2.2522580000 	    0.0001320000
H   	   -3.0757100000 	    0.1213030000 	    0.0001570000
