12
tauto -410.884056476
N   	   -2.3256690000 	   -0.7960370000 	   -0.0002050000
C   	   -1.0955480000 	   -0.2535960000 	   -0.0000270000
N   	   -1.0979830000 	    1.1332720000 	    0.0001760000
C   	    0.0871630000 	    1.6497150000 	    0.0001490000
N   	    1.2161870000 	    0.9206460000 	   -0.0003740000
N   	   -0.0580010000 	   -1.0583680000 	   -0.0002310000
C   	    1.1923480000 	   -0.5076790000 	   -0.0000300000
O   	    2.2472290000 	   -1.1018820000 	    0.0002820000
H   	   -3.1344880000 	   -0.1981300000 	    0.0008610000
H   	   -2.4188190000 	   -1.7984000000 	    0.0006150000
H   	    0.1995240000 	    2.7330550000 	    0.0000770000
H   	    2.1304370000 	    1.3513050000 	    0.0000760000
