15
tauto -450.141049843
C   	    2.5960110000 	   -0.7691540000 	    0.0003100000
C   	    1.1196090000 	   -0.5040020000 	   -0.0001630000
C   	    0.6560370000 	    0.9153720000 	   -0.0000770000
N   	   -0.7145320000 	    1.0473240000 	    0.0001150000
O   	    1.4014940000 	    1.8741080000 	   -0.0001890000
N   	    0.2960270000 	   -1.4887210000 	   -0.0002610000
N   	   -1.0310590000 	   -1.2317170000 	   -0.0003840000
C   	   -1.6406480000 	    0.0129480000 	    0.0000980000
N   	   -2.8849860000 	    0.2766520000 	    0.0003360000
H   	    3.1349380000 	    0.1798320000 	   -0.0036290000
H   	    2.8842140000 	   -1.3476830000 	   -0.8821710000
H   	    2.8849910000 	   -1.3403220000 	    0.8873580000
H   	   -1.0990410000 	    1.9839700000 	    0.0002210000
H   	   -1.6090270000 	   -2.0567590000 	   -0.0001240000
H   	   -3.4522330000 	   -0.5676530000 	    0.0002070000
