17
tauto -580.518110896
N   	   -0.6110410000 	    2.6218710000 	   -0.0000890000
C   	   -0.7365170000 	    1.2859700000 	   -0.0000100000
C   	    0.5164230000 	    0.5153320000 	    0.0000210000
C   	    0.3949080000 	   -0.8812200000 	    0.0000120000
N   	   -0.8564320000 	   -1.4127020000 	    0.0000590000
N   	    1.4631580000 	   -1.6838380000 	   -0.0000260000
C   	    2.6375690000 	   -1.0645940000 	   -0.0000270000
C   	    2.7679700000 	    0.3287760000 	   -0.0000030000
N   	    1.7003210000 	    1.1205280000 	    0.0000200000
N   	   -1.9141010000 	    0.7336420000 	    0.0000460000
C   	   -2.0438870000 	   -0.6465110000 	    0.0001390000
O   	   -3.1074540000 	   -1.2243980000 	   -0.0001200000
H   	    0.3069580000 	    3.0382910000 	    0.0001150000
H   	   -1.4431380000 	    3.1897550000 	    0.0000860000
H   	   -0.9637330000 	   -2.4183940000 	   -0.0000300000
H   	    3.5215050000 	   -1.6990650000 	   -0.0000710000
H   	    3.7459050000 	    0.8015700000 	   -0.0000070000
