21
tauto -549.604399408
C   	    3.7884320000 	   -0.4761460000 	   -0.0003640000
C   	    2.2962210000 	   -0.4488510000 	    0.0001920000
N   	    1.6193380000 	    0.7294150000 	    0.0022950000
N   	    0.2950590000 	    0.4625240000 	    0.0009280000
C   	    1.3858740000 	   -1.4754780000 	   -0.0006320000
C   	    0.0831980000 	   -0.8869520000 	   -0.0000980000
N   	   -1.1328900000 	   -1.4029070000 	   -0.0008330000
C   	   -2.1404020000 	   -0.4968850000 	   -0.0014910000
C   	   -3.5202860000 	   -1.0967050000 	    0.0012100000
C   	   -1.9778300000 	    0.8794500000 	   -0.0016600000
C   	   -0.6841000000 	    1.4785480000 	   -0.0002380000
O   	   -0.3064960000 	    2.6454010000 	   -0.0000730000
H   	    4.1909810000 	    0.0270780000 	   -0.8855580000
H   	    4.1401890000 	   -1.5095610000 	   -0.0039100000
H   	    4.1915900000 	    0.0213060000 	    0.8877980000
H   	    1.8977270000 	    1.7005980000 	   -0.0018660000
H   	    1.5985870000 	   -2.5340260000 	   -0.0013030000
H   	   -3.6352420000 	   -1.7627810000 	   -0.8595590000
H   	   -4.2989770000 	   -0.3306340000 	   -0.0319360000
H   	   -3.6565390000 	   -1.7047850000 	    0.9012280000
H   	   -2.8335390000 	    1.5444850000 	   -0.0025510000
