16
tauto -542.347776526
C   	    3.2028720000 	   -0.6722270000 	    0.0001430000
C   	    1.7618760000 	   -0.2456180000 	   -0.0000430000
N   	    0.8268000000 	   -1.2538760000 	   -0.0001120000
C   	   -0.5019190000 	   -0.9470170000 	   -0.0000540000
N   	   -1.5478610000 	   -1.7319430000 	   -0.0001090000
N   	   -2.6071420000 	   -0.8769040000 	    0.0002480000
N   	   -2.2500910000 	    0.3495900000 	    0.0000090000
N   	   -0.8922240000 	    0.3441150000 	   -0.0000550000
C   	    1.3751960000 	    1.0551400000 	   -0.0000380000
C   	   -0.0177180000 	    1.4823880000 	   -0.0001550000
O   	   -0.4463000000 	    2.6066820000 	    0.0000630000
H   	    3.3071120000 	   -1.7608700000 	   -0.0015250000
H   	    3.7124650000 	   -0.2822920000 	    0.8854490000
H   	    3.7135150000 	   -0.2795040000 	   -0.8833120000
H   	    1.0913920000 	   -2.2276640000 	   -0.0000940000
H   	    2.1176920000 	    1.8440160000 	   -0.0000020000
