15
tauto -470.98972732
C   	   -3.2243740000 	    0.0024410000 	    0.0001870000
C   	   -1.7236880000 	   -0.0205880000 	    0.0002410000
N   	   -1.1470550000 	   -1.2751860000 	   -0.0005060000
C   	    0.2112840000 	   -1.4082830000 	   -0.0002690000
C   	    0.9886420000 	   -0.3031350000 	    0.0000850000
C   	    2.4152240000 	   -0.4260770000 	    0.0002100000
N   	    3.5653410000 	   -0.5593290000 	    0.0003580000
N   	   -1.0466180000 	    1.0704860000 	    0.0005550000
C   	    0.3642350000 	    1.0437840000 	   -0.0000150000
O   	    1.0171240000 	    2.0618780000 	   -0.0006260000
H   	   -3.6227090000 	   -0.5012460000 	    0.8879520000
H   	   -3.6225110000 	   -0.5014750000 	   -0.8875910000
H   	   -3.5551050000 	    1.0406740000 	   -0.0001150000
H   	   -1.7345430000 	   -2.0955580000 	   -0.0002620000
H   	    0.6082720000 	   -2.4180720000 	   -0.0004690000
