13
tauto -394.830626588
N   	   -2.3509010000 	   -0.8398530000 	   -0.0412060000
C   	   -1.1248850000 	   -0.2555210000 	   -0.0043780000
C   	   -1.0476180000 	    1.1845430000 	   -0.0013600000
C   	    0.1983190000 	    1.7089440000 	    0.0017920000
N   	    1.2764530000 	    0.8900630000 	    0.0018150000
N   	   -0.0830340000 	   -1.0522990000 	    0.0007150000
C   	    1.1840270000 	   -0.5253430000 	   -0.0001300000
O   	    2.2142730000 	   -1.1689120000 	    0.0024530000
H   	   -3.1763690000 	   -0.3108160000 	    0.1854990000
H   	   -2.3761690000 	   -1.8392020000 	    0.0948740000
H   	   -1.9321690000 	    1.8096460000 	   -0.0129240000
H   	    0.3955200000 	    2.7767070000 	    0.0027330000
H   	    2.2183280000 	    1.2538460000 	    0.0053830000
