34
tauto -782.793076329
C   	   -1.2059670000 	    1.6086060000 	   -0.4056340000
C   	    0.1351820000 	    2.2986580000 	   -0.7006550000
C   	    1.1970350000 	    1.2654630000 	   -0.3794940000
N   	    0.5413470000 	    0.0917170000 	   -0.0488410000
N   	    2.4458980000 	    1.4945270000 	   -0.4179350000
C   	    3.3522750000 	    0.4469780000 	   -0.1451520000
C   	    4.2403950000 	    0.5757250000 	    0.9269330000
C   	    5.1692600000 	   -0.4230590000 	    1.1923390000
C   	    5.2371780000 	   -1.5580770000 	    0.3870110000
C   	    4.3671820000 	   -1.6830670000 	   -0.6911820000
C   	    3.4296650000 	   -0.6895410000 	   -0.9585810000
C   	   -0.8395800000 	    0.1766170000 	   -0.0511430000
N   	   -1.5696720000 	   -0.8284920000 	    0.2049980000
C   	   -2.9713880000 	   -0.6539810000 	    0.1981750000
C   	   -3.7227800000 	   -1.1092980000 	   -0.8884760000
C   	   -5.1071170000 	   -0.9777620000 	   -0.8868630000
C   	   -5.7603700000 	   -0.4010730000 	    0.1992530000
C   	   -5.0152100000 	    0.0404550000 	    1.2887810000
C   	   -3.6297120000 	   -0.0847860000 	    1.2919030000
H   	   -1.8963640000 	    1.6128000000 	   -1.2540750000
H   	   -1.7384860000 	    2.0639220000 	    0.4347230000
H   	    0.3033030000 	    3.1956540000 	   -0.1002800000
H   	    0.2338510000 	    2.5894300000 	   -1.7504600000
H   	    1.0169000000 	   -0.7666630000 	    0.1930230000
H   	    4.1895750000 	    1.4708620000 	    1.5408900000
H   	    5.8506360000 	   -0.3113820000 	    2.0323360000
H   	    5.9690880000 	   -2.3339930000 	    0.5943040000
H   	    4.4179180000 	   -2.5582900000 	   -1.3344460000
H   	    2.7635630000 	   -0.7775640000 	   -1.8144800000
H   	   -3.2073700000 	   -1.5709320000 	   -1.7268060000
H   	   -5.6795530000 	   -1.3328270000 	   -1.7404620000
H   	   -6.8426680000 	   -0.3034880000 	    0.1995860000
H   	   -5.5146350000 	    0.4844530000 	    2.1465930000
H   	   -3.0450500000 	    0.2425960000 	    2.1487160000
