41
tauto -974.477019501
C   	    5.4611540000 	   -0.0028240000 	    0.4852980000
C   	    4.7953440000 	    1.1992740000 	    0.2664790000
C   	    3.4723850000 	    1.2002460000 	   -0.1654680000
C   	    2.7981610000 	   -0.0014620000 	   -0.3823770000
C   	    1.3668740000 	   -0.0007230000 	   -0.9117950000
N   	    0.6855770000 	   -1.2354330000 	   -0.5349750000
C   	   -0.5770380000 	   -1.1865990000 	   -0.4184870000
C   	   -1.3646450000 	   -2.4025820000 	   -0.0761080000
C   	   -0.7331750000 	   -3.4525620000 	    0.5940140000
C   	   -1.4442100000 	   -4.5989840000 	    0.9212720000
C   	   -2.7898820000 	   -4.7119050000 	    0.5761940000
C   	   -3.4202640000 	   -3.6747590000 	   -0.1024860000
C   	   -2.7104910000 	   -2.5224350000 	   -0.4273140000
N   	   -1.3091710000 	    0.0006660000 	   -0.5823830000
C   	   -0.5757910000 	    1.1871730000 	   -0.4184810000
C   	   -1.3621180000 	    2.4039720000 	   -0.0760420000
C   	   -2.7077330000 	    2.5254440000 	   -0.4275940000
C   	   -3.4162480000 	    3.6785360000 	   -0.1027570000
C   	   -2.7848380000 	    4.7148300000 	    0.5762700000
C   	   -1.4393960000 	    4.6002860000 	    0.9217010000
C   	   -0.7296020000 	    3.4530980000 	    0.5944310000
N   	    0.6868700000 	    1.2347060000 	   -0.5349590000
C   	    3.4709540000 	   -1.2038450000 	   -0.1648570000
C   	    4.7939260000 	   -1.2042310000 	    0.2670990000
H   	    6.4942130000 	   -0.0033410000 	    0.8247690000
H   	    5.3067440000 	    2.1441990000 	    0.4348390000
H   	    2.9474340000 	    2.1364120000 	   -0.3289370000
H   	    1.4265740000 	   -0.0007430000 	   -2.0134080000
H   	    0.3171980000 	   -3.3470760000 	    0.8486680000
H   	   -0.9480440000 	   -5.4095170000 	    1.4486010000
H   	   -3.3442170000 	   -5.6111390000 	    0.8322440000
H   	   -4.4652870000 	   -3.7637120000 	   -0.3872900000
H   	   -3.2044020000 	   -1.7318130000 	   -0.9886110000
H   	   -2.2189060000 	    0.0011690000 	   -0.1406150000
H   	   -3.2023800000 	    1.7354680000 	   -0.9891530000
H   	   -4.4610840000 	    3.7687700000 	   -0.3878480000
H   	   -3.3381930000 	    5.6146710000 	    0.8323130000
H   	   -0.9424350000 	    5.4101570000 	    1.4493010000
H   	    0.3205890000 	    3.3463660000 	    0.8493150000
H   	    2.9448690000 	   -2.1394520000 	   -0.3278770000
H   	    5.3041920000 	   -2.1496810000 	    0.4359480000
