15
tauto -450.13508244
N   	   -3.0903840000 	   -0.1005180000 	   -0.0114830000
N   	   -1.9208830000 	   -0.9069130000 	   -0.0273920000
C   	   -0.8330930000 	   -0.2347360000 	   -0.0407450000
C   	   -0.6553540000 	    1.2128160000 	   -0.0532790000
C   	    0.5857020000 	    1.7194600000 	   -0.0212900000
N   	    1.7016520000 	    0.9116000000 	    0.0396000000
N   	    0.3613560000 	   -0.9696640000 	   -0.0467230000
C   	    1.6410490000 	   -0.4762110000 	    0.0118390000
O   	    2.6362770000 	   -1.1714080000 	    0.0367330000
H   	   -3.8607930000 	   -0.7549840000 	   -0.1027010000
H   	   -3.1885350000 	    0.3060230000 	    0.9190770000
H   	   -1.5286650000 	    1.8451770000 	   -0.1340090000
H   	    0.7855330000 	    2.7856960000 	   -0.0478120000
H   	    2.6326270000 	    1.2970330000 	    0.0691450000
H   	    0.2776070000 	   -1.9772020000 	   -0.0547220000
