38
tauto -896.584397603
C   	   -5.4579840000 	   -0.2109930000 	    0.9645480000
C   	   -4.8722150000 	   -0.4792150000 	   -0.4077550000
O   	   -3.4552450000 	   -0.7415430000 	   -0.3252000000
C   	   -2.6719550000 	    0.3237990000 	   -0.2555820000
C   	   -1.2189770000 	   -0.0362240000 	   -0.1704170000
N   	   -0.3108490000 	    1.0165480000 	   -0.1032200000
N   	   -0.7126770000 	   -1.2018180000 	   -0.1479270000
C   	    0.7445200000 	   -1.0199800000 	   -0.0510060000
C   	    1.4037270000 	   -1.6750510000 	   -1.2819730000
C   	    2.9266510000 	   -1.7670160000 	   -1.1704070000
C   	    3.3441730000 	   -2.4835880000 	    0.1149920000
C   	    2.7567300000 	   -1.7849450000 	    1.3426260000
C   	    1.2329820000 	   -1.6917520000 	    1.2490390000
C   	    0.9422140000 	    0.4958190000 	   -0.0273510000
N   	    2.0828240000 	    1.1053890000 	    0.0500200000
C   	    2.0798670000 	    2.5037350000 	    0.0602390000
C   	    3.4641570000 	    3.0927610000 	    0.1576080000
O   	    1.0822160000 	    3.2120520000 	   -0.0009290000
O   	   -3.0306720000 	    1.4796830000 	   -0.2614020000
H   	   -6.5435400000 	   -0.0931910000 	    0.8849900000
H   	   -5.0436280000 	    0.7079260000 	    1.3880590000
H   	   -5.2487630000 	   -1.0435700000 	    1.6426970000
H   	   -5.0334980000 	    0.3641600000 	   -1.0842010000
H   	   -5.2835510000 	   -1.3871980000 	   -0.8527400000
H   	   -0.5004210000 	    2.0126350000 	   -0.1091130000
H   	    1.1069730000 	   -1.1279280000 	   -2.1852320000
H   	    0.9704370000 	   -2.6801500000 	   -1.3627010000
H   	    3.3563390000 	   -0.7590590000 	   -1.1810220000
H   	    3.3145920000 	   -2.2977330000 	   -2.0481490000
H   	    4.4373860000 	   -2.5205020000 	    0.1891900000
H   	    2.9925480000 	   -3.5257960000 	    0.0836380000
H   	    3.1813690000 	   -0.7781300000 	    1.4260540000
H   	    3.0225250000 	   -2.3290690000 	    2.2569630000
H   	    0.8167560000 	   -1.1564270000 	    2.1112480000
H   	    0.7931820000 	   -2.6971430000 	    1.2568590000
H   	    3.9553530000 	    2.7287890000 	    1.0656010000
H   	    3.4090250000 	    4.1821030000 	    0.1689050000
H   	    4.0680950000 	    2.7538110000 	   -0.6902770000
