47
tauto -1053.09074782
C   	   -0.0648010000 	    0.9099870000 	    3.5160160000
C   	   -0.2155450000 	    1.9407130000 	    2.4041330000
C   	   -0.1496250000 	    1.3172300000 	    0.9975970000
C   	   -0.3147970000 	    2.4284920000 	   -0.0497890000
C   	    0.7899090000 	    3.0019930000 	   -0.6783030000
C   	    0.6237890000 	    4.0415800000 	   -1.5901120000
C   	   -0.6475690000 	    4.5235750000 	   -1.8817010000
C   	   -1.7544910000 	    3.9596610000 	   -1.2527370000
C   	   -1.5886120000 	    2.9217310000 	   -0.3425380000
N   	    1.1714170000 	    0.6987930000 	    0.8508750000
C   	    1.2540160000 	   -0.3438510000 	    0.1287570000
C   	    2.5677760000 	   -0.9947540000 	   -0.1330580000
C   	    2.7931220000 	   -1.7584000000 	   -1.2798250000
C   	    4.0348380000 	   -2.3490400000 	   -1.4963550000
C   	    5.0563700000 	   -2.1824790000 	   -0.5676030000
C   	    4.8380360000 	   -1.4123550000 	    0.5731880000
C   	    3.6024590000 	   -0.8168870000 	    0.7876760000
N   	    0.1305550000 	   -0.9520830000 	   -0.4312110000
C   	   -1.0978720000 	   -0.6552860000 	    0.1588790000
C   	   -2.2105680000 	   -1.6186960000 	   -0.0741900000
C   	   -1.9881650000 	   -2.9802810000 	   -0.2889050000
C   	   -3.0589600000 	   -3.8451700000 	   -0.4933470000
C   	   -4.3606070000 	   -3.3556610000 	   -0.4865820000
C   	   -4.5892500000 	   -1.9995360000 	   -0.2645670000
C   	   -3.5213750000 	   -1.1369480000 	   -0.0568800000
N   	   -1.2746420000 	    0.3806340000 	    0.8743830000
H   	   -0.1239520000 	    1.3858460000 	    4.5005640000
H   	    0.9015820000 	    0.3995970000 	    3.4408740000
H   	   -0.8567300000 	    0.1562260000 	    3.4516270000
H   	    0.5762210000 	    2.6960810000 	    2.4687130000
H   	   -1.1760300000 	    2.4609880000 	    2.4945480000
H   	    1.7837040000 	    2.6269920000 	   -0.4515080000
H   	    1.4955330000 	    4.4753330000 	   -2.0744570000
H   	   -0.7765600000 	    5.3334370000 	   -2.5956400000
H   	   -2.7533360000 	    4.3296660000 	   -1.4721340000
H   	   -2.4536840000 	    2.4788740000 	    0.1444340000
H   	    2.0156000000 	   -1.8656290000 	   -2.0339890000
H   	    4.2046150000 	   -2.9322700000 	   -2.3975330000
H   	    6.0246610000 	   -2.6470810000 	   -0.7346850000
H   	    5.6352880000 	   -1.2766970000 	    1.2992880000
H   	    3.4146420000 	   -0.2054410000 	    1.6652230000
H   	    0.2465660000 	   -1.8621110000 	   -0.8486790000
H   	   -0.9812190000 	   -3.3929070000 	   -0.2612880000
H   	   -2.8741410000 	   -4.9044980000 	   -0.6503000000
H   	   -5.1965810000 	   -4.0309720000 	   -0.6494430000
H   	   -5.6047690000 	   -1.6123920000 	   -0.2550920000
H   	   -3.6811770000 	   -0.0781640000 	    0.1226270000
