13
tauto -503.034521318
O   	    1.4236260000 	    2.0842140000 	    0.0000550000
C   	    1.0948020000 	    0.9234290000 	   -0.0001370000
C   	    1.9941700000 	   -0.2455270000 	    0.0000910000
N   	    1.6184070000 	   -1.4821460000 	    0.0000880000
N   	    0.3149990000 	   -1.7600450000 	   -0.0001840000
N   	   -0.2525480000 	    0.5164630000 	   -0.0001990000
C   	   -0.6548420000 	   -0.7939860000 	   -0.0000420000
N   	   -1.9492160000 	   -0.9092550000 	    0.0001340000
N   	   -2.4408280000 	    0.3832370000 	    0.0000230000
C   	   -1.4432230000 	    1.2136950000 	    0.0000700000
H   	    3.0611520000 	   -0.0534050000 	    0.0003200000
H   	    0.0604550000 	   -2.7361330000 	    0.0002570000
H   	   -1.4917570000 	    2.2923850000 	    0.0000570000
