16
tauto -471.118621441
O   	    3.1845930000 	   -0.3548890000 	    0.0002820000
N   	    1.9754810000 	   -1.0712340000 	   -0.0003190000
C   	    1.0021020000 	   -0.2502780000 	   -0.0001480000
C   	    1.0188040000 	    1.2583200000 	    0.0006480000
C   	   -0.4689330000 	    1.6691550000 	   -0.0005620000
N   	   -0.3135110000 	   -0.6774410000 	   -0.0004680000
C   	   -1.2213630000 	    0.3578250000 	   -0.0001900000
N   	   -2.4926180000 	    0.2562040000 	    0.0002530000
O   	   -2.8417950000 	   -1.1104990000 	    0.0002940000
H   	    3.8394340000 	   -1.0631340000 	   -0.0000280000
H   	    1.5655020000 	    1.6170760000 	   -0.8759430000
H   	    1.5636390000 	    1.6160100000 	    0.8788560000
H   	   -0.7386390000 	    2.2560180000 	   -0.8823490000
H   	   -0.7399120000 	    2.2575340000 	    0.8798070000
H   	   -0.5962510000 	   -1.6450630000 	   -0.0003510000
H   	   -3.8052910000 	   -1.0781830000 	    0.0006600000
