22
tauto -695.939501799
O   	   -0.1158890000 	    2.4959000000 	    0.0768100000
C   	   -0.0362990000 	    1.2919510000 	    0.0683850000
N   	   -1.2018100000 	    0.4829540000 	    0.0867960000
N   	   -2.3643680000 	    1.1298180000 	   -0.4499840000
N   	   -3.4245170000 	    0.5258780000 	   -0.3466330000
C   	   -3.4248800000 	   -0.7572730000 	    0.3938150000
N   	   -2.2847600000 	   -1.5849370000 	    0.1110870000
C   	   -1.2051180000 	   -0.9120940000 	    0.0384220000
N   	    0.0111910000 	   -1.5243040000 	   -0.1464880000
C   	    1.2239340000 	   -0.8602600000 	   -0.0727670000
C   	    1.2304320000 	    0.5330480000 	    0.0564940000
C   	    2.4437090000 	    1.2213750000 	    0.1310420000
C   	    3.6429910000 	    0.5332780000 	    0.0816210000
C   	    3.6279470000 	   -0.8591160000 	   -0.0495040000
C   	    2.4345630000 	   -1.5582440000 	   -0.1277830000
H   	   -4.3467760000 	   -1.2767760000 	    0.1314050000
H   	   -3.4690950000 	   -0.4800140000 	    1.4593520000
H   	   -0.0205280000 	   -2.5338870000 	   -0.1489980000
H   	    2.4070440000 	    2.3029060000 	    0.2247120000
H   	    4.5864740000 	    1.0668310000 	    0.1410410000
H   	    4.5653560000 	   -1.4075860000 	   -0.0917870000
H   	    2.4308130000 	   -2.6405190000 	   -0.2320000000
