19
tauto -527.542942637
C   	    3.1860350000 	    0.0640830000 	   -0.0001610000
C   	    1.7284160000 	   -0.2702080000 	   -0.0001150000
N   	    1.3572610000 	   -1.5009630000 	   -0.0002880000
N   	    0.0347230000 	   -1.7845740000 	   -0.0003210000
C   	   -0.9685480000 	   -0.8517550000 	    0.0000040000
N   	   -2.2224960000 	   -1.0654040000 	    0.0000680000
C   	   -2.8588730000 	    0.2590430000 	    0.0008560000
C   	   -1.7243010000 	    1.3267280000 	   -0.0002140000
N   	   -0.5416160000 	    0.4727900000 	    0.0003080000
C   	    0.7657500000 	    0.8760950000 	    0.0001810000
O   	    1.1038080000 	    2.0449380000 	   -0.0003020000
H   	    3.7755490000 	   -0.8546750000 	   -0.0004430000
H   	    3.4405620000 	    0.6646080000 	    0.8790620000
H   	    3.4404190000 	    0.6650760000 	   -0.8791030000
H   	   -0.2050460000 	   -2.7628550000 	   -0.0003660000
H   	   -3.4997450000 	    0.3580580000 	    0.8832780000
H   	   -3.5017460000 	    0.3583060000 	   -0.8800600000
H   	   -1.7230810000 	    1.9683670000 	    0.8856060000
H   	   -1.7233520000 	    1.9667480000 	   -0.8872310000
