18
tauto -506.476883092
C   	   -3.0117570000 	    0.6582070000 	    0.0000240000
N   	   -1.7843400000 	   -0.1118560000 	   -0.0000360000
C   	   -0.5131660000 	    0.3927980000 	    0.0000070000
N   	   -0.1867480000 	    1.7263140000 	    0.0000020000
C   	    1.0907490000 	    1.9026730000 	   -0.0000030000
N   	    2.0290350000 	    0.9069360000 	    0.0000000000
C   	    1.7650210000 	   -0.4934740000 	   -0.0000060000
N   	    2.6526550000 	   -1.4060460000 	    0.0000220000
C   	    0.3279770000 	   -0.6992450000 	   -0.0000120000
N   	   -0.3909830000 	   -1.8666910000 	   -0.0000090000
C   	   -1.6387720000 	   -1.4748420000 	    0.0000070000
H   	   -2.7408160000 	    1.7154700000 	   -0.0008330000
H   	   -3.6027800000 	    0.4386860000 	    0.8935080000
H   	   -3.6036040000 	    0.4374290000 	   -0.8926020000
H   	    1.4935490000 	    2.9135300000 	   -0.0000110000
H   	    3.0010100000 	    1.1836360000 	   -0.0000580000
H   	    3.5957100000 	   -1.0141930000 	    0.0000470000
H   	   -2.5007210000 	   -2.1318650000 	   -0.0000050000
