21
tauto -624.625624304
O   	   -4.2293860000 	   -0.3495220000 	    0.0000300000
C   	   -3.0509920000 	   -0.0571040000 	   -0.0000220000
N   	   -2.0654190000 	   -1.0480260000 	   -0.0000180000
C   	   -0.7161550000 	   -0.8141580000 	   -0.0000120000
N   	    0.2410600000 	   -1.6878690000 	   -0.0000030000
C   	    1.3994550000 	   -0.9093760000 	    0.0000030000
C   	    2.7343550000 	   -1.3119360000 	    0.0000130000
C   	    3.7140880000 	   -0.3282700000 	    0.0000120000
C   	    3.3856640000 	    1.0358750000 	    0.0000020000
C   	    2.0614990000 	    1.4572400000 	   -0.0000090000
C   	    1.0938790000 	    0.4619180000 	   -0.0000080000
N   	   -0.3044680000 	    0.5080730000 	   -0.0000130000
C   	   -1.2009130000 	    1.5542920000 	    0.0000030000
C   	   -2.5218990000 	    1.3160900000 	    0.0000090000
H   	   -2.3769410000 	   -2.0105490000 	   -0.0000070000
H   	    2.9844100000 	   -2.3684860000 	    0.0000190000
H   	    4.7612810000 	   -0.6185070000 	    0.0000190000
H   	    4.1794710000 	    1.7773630000 	    0.0000040000
H   	    1.8066340000 	    2.5138900000 	   -0.0000140000
H   	   -0.7666210000 	    2.5487870000 	    0.0000110000
H   	   -3.2452530000 	    2.1210170000 	    0.0000270000
