16
tauto -434.126750218
C   	   -0.5053110000 	   -2.0880770000 	    0.0001570000
N   	   -0.1737830000 	   -0.6728510000 	   -0.0001530000
C   	   -1.2342880000 	    0.2645490000 	   -0.0000570000
C   	   -0.8211620000 	    1.6662970000 	    0.0000920000
C   	    0.4751920000 	    1.9886460000 	    0.0000660000
N   	    1.4477290000 	    1.0093850000 	   -0.0000560000
N   	   -2.4762430000 	   -0.0321730000 	   -0.0000830000
C   	    1.1771840000 	   -0.3439770000 	    0.0000060000
O   	    2.0735980000 	   -1.1674440000 	   -0.0000320000
H   	   -1.0857220000 	   -2.3432070000 	    0.8934990000
H   	    0.4262000000 	   -2.6503690000 	    0.0001880000
H   	   -1.0858450000 	   -2.3437390000 	   -0.8929670000
H   	   -1.6062300000 	    2.4102100000 	    0.0001850000
H   	    0.8391720000 	    3.0103460000 	    0.0001570000
H   	    2.4294030000 	    1.2380780000 	   -0.0001270000
H   	   -2.6393770000 	   -1.0369250000 	   -0.0002280000
