20
tauto -536.159077428
O   	    2.1627610000 	   -1.7108900000 	   -0.0011290000
C   	    2.1442330000 	   -0.3758560000 	    0.0001000000
O   	    3.3924700000 	    0.1307220000 	    0.0015570000
C   	    1.0006030000 	    0.3439980000 	   -0.0012900000
C   	    0.8988900000 	    1.8028840000 	   -0.0008570000
C   	   -0.4041340000 	    2.1625280000 	   -0.0000420000
C   	   -0.3721400000 	   -0.1655910000 	   -0.0004050000
C   	   -1.2282600000 	    0.9587520000 	   -0.0001140000
C   	   -2.6119800000 	    0.7931380000 	    0.0004580000
C   	   -3.1344140000 	   -0.4948030000 	    0.0006530000
C   	   -2.2856180000 	   -1.6067670000 	    0.0002520000
C   	   -0.9026310000 	   -1.4545730000 	   -0.0003130000
H   	    3.0866890000 	   -2.0012590000 	    0.0032940000
H   	    3.3464850000 	    1.0965700000 	    0.0026310000
H   	    1.7342020000 	    2.4995020000 	   -0.0016470000
H   	   -0.7882990000 	    3.1769150000 	    0.0002690000
H   	   -3.2724320000 	    1.6578200000 	    0.0009230000
H   	   -4.2118160000 	   -0.6412120000 	    0.0011170000
H   	   -2.7135990000 	   -2.6064180000 	    0.0002430000
H   	   -0.2503620000 	   -2.3228240000 	   -0.0009070000
