25
tauto -605.969993465
C   	   -3.6452380000 	   -0.6228440000 	    0.3194700000
C   	   -2.3202530000 	    0.0323740000 	    0.0883170000
N   	   -2.2525450000 	    1.3065660000 	   -0.0377290000
N   	   -1.0408110000 	    1.8404230000 	   -0.2698510000
C   	    0.1789230000 	    1.2145420000 	   -0.0863370000
N   	    1.2280420000 	    1.9471950000 	    0.1030530000
C   	    2.2053250000 	    0.8361620000 	    0.1447620000
C   	    3.5348510000 	    0.0776060000 	    0.2205180000
C   	    2.7233110000 	   -1.3075510000 	    0.1933000000
C   	    1.2590290000 	   -1.2997120000 	   -0.4601860000
N   	    0.1192460000 	   -0.2552400000 	   -0.1441970000
C   	   -1.1361140000 	   -0.8604140000 	   -0.0428780000
O   	   -1.2918840000 	   -2.0700980000 	   -0.0659360000
H   	   -4.4256460000 	    0.1394750000 	    0.3619170000
H   	   -3.6375120000 	   -1.1909240000 	    1.2552210000
H   	   -3.8663250000 	   -1.3343930000 	   -0.4818170000
H   	   -1.0011950000 	    2.8460680000 	   -0.1902970000
H   	    1.9965080000 	    0.4426480000 	   -0.8385750000
H   	    1.7532610000 	    0.2842280000 	    0.9657010000
H   	    4.1196500000 	    0.1553290000 	    1.1417520000
H   	    4.1932110000 	    0.2003600000 	   -0.6450430000
H   	    2.6194590000 	   -1.6438470000 	    1.2309410000
H   	    3.2627650000 	   -2.0962950000 	   -0.3479410000
H   	    0.7869580000 	   -2.2456300000 	   -0.1942000000
H   	    1.3574100000 	   -1.2898200000 	   -1.5509100000
