10
tauto -297.498630556
N   	    2.0459260000 	   -0.1055380000 	    0.0280700000
C   	    0.7881510000 	    0.0211260000 	   -0.0444160000
N   	   -0.0050590000 	    1.1949660000 	   -0.0340350000
C   	   -1.2156840000 	    0.7766760000 	    0.0306190000
N   	   -1.3727340000 	   -0.5895920000 	    0.1305470000
N   	   -0.0812180000 	   -1.0962110000 	   -0.1356480000
H   	    2.4645270000 	    0.8201920000 	    0.0926600000
H   	   -2.0923200000 	    1.4178360000 	    0.0316930000
H   	   -2.0876200000 	   -1.0028800000 	   -0.4598850000
H   	    0.1722030000 	   -1.8473440000 	    0.4957760000
