20
tauto -640.657651631
O   	   -0.4570670000 	    2.4980940000 	    0.0001590000
C   	   -0.3553870000 	    1.2969850000 	   -0.0000270000
N   	   -1.4778210000 	    0.4414640000 	   -0.0003920000
N   	   -2.7827380000 	    0.8485330000 	   -0.0001740000
C   	   -3.4181230000 	   -0.2959000000 	    0.0001320000
N   	   -2.6487490000 	   -1.4309940000 	    0.0002330000
C   	   -1.4433740000 	   -0.9226090000 	   -0.0000150000
N   	   -0.2483770000 	   -1.5723350000 	    0.0000310000
C   	    0.9443510000 	   -0.8668680000 	   -0.0000300000
C   	    0.9157090000 	    0.5373440000 	   -0.0000160000
C   	    2.1203290000 	    1.2506220000 	    0.0000500000
C   	    3.3321260000 	    0.5877350000 	    0.0000510000
C   	    3.3493190000 	   -0.8125060000 	    0.0000010000
C   	    2.1728600000 	   -1.5391610000 	   -0.0000350000
H   	   -4.4996660000 	   -0.3363030000 	    0.0003450000
H   	   -0.2626690000 	   -2.5810980000 	   -0.0003350000
H   	    2.0617580000 	    2.3352500000 	    0.0000920000
H   	    4.2637020000 	    1.1450770000 	    0.0000920000
H   	    4.2984950000 	   -1.3418170000 	    0.0000070000
H   	    2.1918480000 	   -2.6263860000 	   -0.0000330000
