32
tauto -797.830930919
O   	   -0.2232810000 	    1.9504140000 	   -0.0429790000
C   	    0.0847380000 	    0.7756770000 	   -0.1298000000
C   	   -0.9100060000 	   -0.3291340000 	   -0.2377940000
C   	   -2.3660350000 	   -0.1042210000 	   -0.0296190000
C   	   -3.1534920000 	   -1.1933130000 	    0.3657780000
C   	   -4.5221390000 	   -1.0519430000 	    0.5466660000
C   	   -5.1303230000 	    0.1836900000 	    0.3400430000
C   	   -4.3565860000 	    1.2705330000 	   -0.0504240000
C   	   -2.9837990000 	    1.1339610000 	   -0.2352200000
N   	   -0.5362430000 	   -1.5247400000 	   -0.5461500000
N   	    0.7647350000 	   -1.7847800000 	   -0.6934750000
N   	    1.4282370000 	    0.3861920000 	   -0.1822600000
C   	    1.8086570000 	   -0.9653440000 	   -0.2508860000
N   	    2.9081270000 	   -1.5438260000 	   -0.0129380000
C   	    4.0694380000 	   -1.0022440000 	    0.6591150000
C   	    4.5994460000 	    0.3648500000 	    0.2408740000
C   	    3.6096470000 	    1.4920640000 	    0.4987880000
C   	    2.4098000000 	    1.4492100000 	   -0.4351760000
H   	   -2.6775310000 	   -2.1557320000 	    0.5286240000
H   	   -5.1152420000 	   -1.9086090000 	    0.8567890000
H   	   -6.2014690000 	    0.2981060000 	    0.4861910000
H   	   -4.8219840000 	    2.2388770000 	   -0.2160350000
H   	   -2.3891920000 	    1.9883830000 	   -0.5326760000
H   	    0.9976240000 	   -2.7672680000 	   -0.7228740000
H   	    4.8693140000 	   -1.7412610000 	    0.5401260000
H   	    3.8440970000 	   -0.9693760000 	    1.7368400000
H   	    5.5268180000 	    0.5465880000 	    0.7981440000
H   	    4.8679590000 	    0.3470550000 	   -0.8244750000
H   	    4.1020820000 	    2.4591100000 	    0.3397780000
H   	    3.2690200000 	    1.4767810000 	    1.5426470000
H   	    2.7612270000 	    1.3341330000 	   -1.4698670000
H   	    1.8434700000 	    2.3772680000 	   -0.3696820000
