11
tauto -339.468084916
O   	    2.2423550000 	   -0.0241870000 	   -0.0008500000
C   	    1.0323290000 	   -0.0853740000 	   -0.0000700000
N   	    0.2947230000 	   -1.2636200000 	    0.0006150000
C   	   -1.0033760000 	   -1.1960670000 	    0.0005380000
C   	   -1.7764420000 	    0.0043760000 	   -0.0008110000
C   	   -1.0708730000 	    1.1629990000 	   -0.0000030000
N   	    0.2823200000 	    1.1116090000 	    0.0008930000
H   	   -1.5274840000 	   -2.1537470000 	   -0.0003840000
H   	   -2.8586320000 	   -0.0113460000 	   -0.0019990000
H   	   -1.5206600000 	    2.1512880000 	   -0.0001380000
H   	    0.8388010000 	    1.9557690000 	    0.0008400000
