11
tauto -281.482319389
N   	    2.0687310000 	   -0.1309100000 	    0.0001930000
C   	    0.7912850000 	   -0.0154640000 	   -0.0000820000
N   	   -0.0564300000 	    1.0854320000 	   -0.0005010000
C   	   -1.3969220000 	    0.6856910000 	    0.0000950000
C   	   -1.4094030000 	   -0.6566810000 	    0.0002030000
N   	   -0.0845020000 	   -1.0849500000 	   -0.0001190000
H   	    2.5145910000 	    0.7828260000 	   -0.0000130000
H   	    0.2738670000 	    2.0343690000 	    0.0016480000
H   	   -2.2076400000 	    1.3976820000 	    0.0000250000
H   	   -2.2357350000 	   -1.3505020000 	    0.0002150000
H   	    0.2505660000 	   -2.0326550000 	   -0.0001920000
