10
tauto -301.339667673
N   	   -2.0395650000 	    0.1022010000 	    0.0002960000
C   	   -0.7748450000 	    0.0311950000 	   -0.0001630000
O   	    0.0019870000 	   -1.1049530000 	   -0.0002960000
C   	    1.3309990000 	   -0.7200250000 	    0.0003150000
C   	    1.4144290000 	    0.6112540000 	    0.0002710000
N   	    0.1068400000 	    1.0884860000 	   -0.0008550000
H   	   -2.4460200000 	   -0.8289890000 	    0.0007170000
H   	    2.0649790000 	   -1.5092670000 	    0.0003480000
H   	    2.2735640000 	    1.2640530000 	    0.0003560000
H   	   -0.2028440000 	    2.0444780000 	    0.0023250000
