18
tauto -547.45431867
C   	    3.7182770000 	   -0.2395370000 	   -0.0005490000
C   	    2.2804270000 	    0.2172630000 	    0.0000150000
N   	    1.3792060000 	   -0.8334390000 	    0.0001400000
C   	    0.0996620000 	   -0.5789210000 	    0.0003210000
N   	   -0.7487920000 	   -1.6578670000 	    0.0002750000
C   	   -2.1167980000 	   -1.5350720000 	   -0.0000900000
C   	   -2.7152330000 	   -0.3329680000 	   -0.0002220000
N   	   -0.5136780000 	    0.6345900000 	    0.0002130000
C   	   -1.9003450000 	    0.8811790000 	   -0.0000520000
O   	   -2.3191950000 	    2.0181510000 	   -0.0002740000
O   	    1.9945250000 	    1.4130910000 	    0.0004240000
H   	    3.9089620000 	   -0.8601000000 	    0.8806850000
H   	    4.3838350000 	    0.6246670000 	   -0.0021400000
H   	    3.9076090000 	   -0.8625490000 	   -0.8803200000
H   	   -0.2915800000 	   -2.5579150000 	   -0.0001490000
H   	   -2.6649130000 	   -2.4713370000 	   -0.0001730000
H   	   -3.7917330000 	   -0.2247660000 	   -0.0004470000
H   	    0.1320810000 	    1.4274130000 	    0.0004130000
