32
tauto -963.348750217
C   	    6.6495830000 	    0.6661210000 	   -0.0233070000
C   	    5.1648050000 	    0.6740530000 	   -0.2695630000
O   	    4.7133870000 	   -0.5752360000 	   -0.5124680000
C   	    3.3211680000 	   -0.6935320000 	   -0.8201090000
C   	    2.4881770000 	   -0.6968680000 	    0.4502150000
O   	    1.1611700000 	   -0.9701340000 	    0.0581090000
C   	    0.2734710000 	   -0.9482320000 	    1.1436840000
N   	   -1.0567480000 	   -1.1632490000 	    0.6602510000
C   	   -1.9740630000 	   -0.1935040000 	    0.3537360000
N   	   -1.8023850000 	    1.1396130000 	    0.5599270000
C   	   -2.8475020000 	    1.8322200000 	    0.2020830000
N   	   -2.8622740000 	    3.1913950000 	    0.3988350000
N   	   -3.9816110000 	    1.2812230000 	   -0.3299920000
C   	   -4.2177860000 	   -0.1069030000 	   -0.5724400000
O   	   -5.2809230000 	   -0.4570740000 	   -1.0374310000
C   	   -3.0577240000 	   -0.8661430000 	   -0.1763920000
N   	   -2.8250320000 	   -2.2268090000 	   -0.2150610000
C   	   -1.6313660000 	   -2.3613960000 	    0.2790780000
O   	    4.4553940000 	    1.6506710000 	   -0.2643860000
H   	    6.8950140000 	   -0.0364090000 	    0.7777560000
H   	    6.9777200000 	    1.6711410000 	    0.2417910000
H   	    7.1697970000 	    0.3314560000 	   -0.9256680000
H   	    3.2129180000 	   -1.6463040000 	   -1.3418090000
H   	    3.0080790000 	    0.1245250000 	   -1.4729280000
H   	    2.5598040000 	    0.2812740000 	    0.9475030000
H   	    2.8636820000 	   -1.4689570000 	    1.1416090000
H   	    0.2905140000 	    0.0251430000 	    1.6511780000
H   	    0.5246150000 	   -1.7402490000 	    1.8654200000
H   	   -1.9510530000 	    3.5619240000 	    0.6297480000
H   	   -3.3752610000 	    3.7508660000 	   -0.2670250000
H   	   -4.7844110000 	    1.8670650000 	   -0.5213370000
H   	   -1.0998670000 	   -3.2973950000 	    0.4035370000
