15
tauto -450.14351361
C   	    2.6033340000 	   -0.7203830000 	    0.0148270000
C   	    1.1282910000 	   -0.4887440000 	    0.0059730000
N   	    0.3335680000 	   -1.5000290000 	   -0.0059800000
N   	   -0.9954440000 	   -1.2084230000 	   -0.0059630000
C   	   -1.4805840000 	    0.0611270000 	   -0.0049120000
N   	   -2.8454480000 	    0.1869930000 	   -0.0595950000
N   	   -0.7302260000 	    1.1218840000 	    0.0116250000
C   	    0.6403170000 	    0.9302080000 	   -0.0022250000
O   	    1.4414260000 	    1.8457650000 	   -0.0106900000
H   	    2.8200480000 	   -1.7906280000 	    0.0116760000
H   	    3.0500970000 	   -0.2512990000 	    0.8969400000
H   	    3.0607310000 	   -0.2429300000 	   -0.8571280000
H   	   -1.5950320000 	   -2.0085510000 	   -0.1345510000
H   	   -3.4042550000 	   -0.5082630000 	    0.4136400000
H   	   -3.1482970000 	    1.1393360000 	    0.0923540000
