28
tauto -724.274714355
C   	    5.4382060000 	    0.4714750000 	    0.8713960000
C   	    4.8788920000 	   -0.2621390000 	   -0.3328020000
O   	    3.5094810000 	   -0.6439140000 	   -0.1227170000
C   	    2.5973930000 	    0.3089550000 	   -0.3416640000
C   	    1.2106700000 	   -0.1583460000 	   -0.1113100000
N   	    0.9177780000 	   -1.3908820000 	    0.2922340000
N   	   -0.4110260000 	   -1.3983150000 	    0.3572760000
H   	   -0.8754230000 	   -2.2245750000 	    0.7030250000
C   	   -0.9922560000 	   -0.2120890000 	    0.0202340000
C   	   -2.4496500000 	   -0.0150170000 	    0.0254990000
C   	   -3.3202980000 	   -1.0664810000 	   -0.2765970000
C   	   -4.6964510000 	   -0.8685670000 	   -0.2621260000
C   	   -5.2186980000 	    0.3847680000 	    0.0420900000
C   	   -4.3574160000 	    1.4393780000 	    0.3341590000
C   	   -2.9823910000 	    1.2407380000 	    0.3309980000
C   	    0.0537570000 	    0.6274800000 	   -0.2944280000
O   	    2.8534490000 	    1.4389660000 	   -0.6975280000
H   	    6.5038950000 	    0.6750260000 	    0.7218100000
H   	    5.3250770000 	   -0.1326640000 	    1.7767600000
H   	    4.9209340000 	    1.4243330000 	    1.0114850000
H   	    5.3981260000 	   -1.2081980000 	   -0.5025740000
H   	    4.9412930000 	    0.3532420000 	   -1.2344200000
H   	   -2.9203240000 	   -2.0398750000 	   -0.5538950000
H   	   -5.3620440000 	   -1.6935330000 	   -0.5022300000
H   	   -6.2941700000 	    0.5407060000 	    0.0488590000
H   	   -4.7593140000 	    2.4204180000 	    0.5732690000
H   	   -2.3100670000 	    2.0578810000 	    0.5805360000
H   	    0.0107580000 	    1.6502690000 	   -0.6399240000
