21
tauto -624.627744246
O   	    1.2454400000 	    2.4123980000 	   -0.0000490000
C   	    1.5675480000 	    1.2422750000 	   -0.0000100000
C   	    2.9318950000 	    0.7216090000 	    0.0000100000
C   	    3.1768930000 	   -0.6051500000 	    0.0000520000
N   	    2.1724190000 	   -1.5339800000 	    0.0000820000
N   	    0.5971220000 	    0.2196070000 	    0.0000090000
C   	    0.8581140000 	   -1.1410430000 	    0.0000510000
N   	   -0.1833000000 	   -1.9096100000 	    0.0000540000
C   	   -1.2518250000 	   -1.0102190000 	    0.0000090000
C   	   -0.7990940000 	    0.3196300000 	   -0.0000150000
C   	   -1.6566700000 	    1.4146450000 	   -0.0000560000
C   	   -3.0157660000 	    1.1309550000 	   -0.0000750000
C   	   -3.4896750000 	   -0.1911550000 	   -0.0000510000
C   	   -2.6217630000 	   -1.2733420000 	   -0.0000100000
H   	    3.7376760000 	    1.4437320000 	   -0.0000090000
H   	    4.1829110000 	   -1.0111470000 	    0.0000780000
H   	    2.3565570000 	   -2.5253390000 	    0.0001150000
H   	   -1.2691120000 	    2.4266370000 	   -0.0000740000
H   	   -3.7284780000 	    1.9511300000 	   -0.0001070000
H   	   -4.5621510000 	   -0.3680160000 	   -0.0000660000
H   	   -2.9825480000 	   -2.2975170000 	    0.0000090000
