22
tauto -699.856751749
O   	   -4.2069980000 	   -0.7686420000 	    0.0006040000
C   	   -3.0594930000 	   -0.4027370000 	    0.0001800000
C   	   -1.8490220000 	   -1.3706590000 	    0.0003350000
N   	   -2.5930840000 	    0.9140040000 	   -0.0004170000
C   	   -1.2961290000 	    0.8239570000 	   -0.0005200000
N   	   -0.4488060000 	    1.8892680000 	   -0.0016020000
N   	   -0.7485930000 	   -0.4297560000 	    0.0001300000
C   	    0.6172870000 	   -0.6701000000 	   -0.0000560000
C   	    1.1382530000 	   -1.9662440000 	   -0.0001650000
C   	    2.5144210000 	   -2.1422810000 	   -0.0001830000
C   	    3.3840610000 	   -1.0488620000 	   -0.0000600000
C   	    2.8634040000 	    0.2345600000 	    0.0000770000
C   	    1.4828740000 	    0.4342100000 	    0.0000410000
C   	    0.9471260000 	    1.8126740000 	    0.0001410000
O   	    1.6197590000 	    2.8206760000 	    0.0012320000
H   	   -1.8551310000 	   -2.0014490000 	   -0.8942190000
H   	   -1.8550820000 	   -2.0012110000 	    0.8950450000
H   	   -0.8643820000 	    2.8125380000 	   -0.0005200000
H   	    0.4704240000 	   -2.8228480000 	   -0.0002960000
H   	    2.9170420000 	   -3.1517630000 	   -0.0003480000
H   	    4.4582830000 	   -1.2054130000 	   -0.0000310000
H   	    3.5034490000 	    1.1121700000 	    0.0001650000
