17
tauto -472.229416845
O   	    1.3016410000 	    2.1386300000 	    0.0001130000
C   	    1.0472610000 	    0.9498630000 	    0.0000020000
N   	    2.0371170000 	   -0.0297130000 	    0.0002000000
C   	    1.7768280000 	   -1.3858940000 	    0.0000080000
C   	    0.5268180000 	   -1.8743110000 	   -0.0002000000
N   	   -0.2180280000 	    0.4306090000 	   -0.0000910000
C   	   -0.5760980000 	   -0.9305290000 	   -0.0001100000
N   	   -1.8286380000 	   -1.1677530000 	    0.0000070000
C   	   -2.5184370000 	    0.1274550000 	    0.0004700000
C   	   -1.4314340000 	    1.2382260000 	   -0.0004870000
H   	    2.9819870000 	    0.3217460000 	    0.0003600000
H   	    2.6551750000 	   -2.0228080000 	    0.0000530000
H   	    0.3184930000 	   -2.9355640000 	   -0.0003220000
H   	   -3.1652450000 	    0.1940230000 	    0.8820280000
H   	   -3.1668060000 	    0.1939760000 	   -0.8799260000
H   	   -1.4596190000 	    1.8800640000 	    0.8849480000
H   	   -1.4598890000 	    1.8786550000 	   -0.8869540000
