36
tauto -895.376528278
C   	   -2.9466410000 	    2.5787570000 	    0.8554670000
C   	   -2.3027480000 	    2.2719430000 	   -0.4998760000
C   	   -1.1843390000 	    1.2819820000 	   -0.3824810000
C   	   -1.2695780000 	   -0.1251430000 	   -0.1495610000
C   	   -2.3631480000 	   -1.0705870000 	   -0.0131350000
O   	   -3.5804790000 	   -0.5132000000 	   -0.1226330000
C   	   -4.6740110000 	   -1.4257060000 	    0.0008650000
O   	   -2.1939410000 	   -2.2635290000 	    0.1799600000
C   	    0.0550880000 	   -0.5329010000 	   -0.0895070000
N   	    0.6465970000 	   -1.7385020000 	    0.0985600000
N   	    0.0676510000 	    1.6897410000 	   -0.4563080000
N   	    0.8237440000 	    0.5608080000 	   -0.2738450000
C   	    2.2192020000 	    0.5224490000 	   -0.2847530000
C   	    2.8916060000 	    1.8502690000 	   -0.4899620000
C   	    2.9498690000 	    2.6674760000 	    0.8053000000
C   	    2.8208610000 	   -0.6739920000 	   -0.0800830000
C   	    4.3063400000 	   -0.8882890000 	   -0.0294670000
C   	    2.0289010000 	   -1.9073770000 	    0.1206550000
O   	    2.5196130000 	   -3.0072110000 	    0.2968810000
H   	   -3.7405780000 	    3.3244500000 	    0.7443810000
H   	   -2.2039760000 	    2.9726710000 	    1.5571890000
H   	   -3.3860070000 	    1.6747330000 	    1.2878960000
H   	   -1.8918080000 	    3.1857900000 	   -0.9403820000
H   	   -3.0603900000 	    1.8772350000 	   -1.1850100000
H   	   -4.6566440000 	   -1.9139750000 	    0.9781720000
H   	   -4.6242360000 	   -2.1895750000 	   -0.7787470000
H   	   -5.5740860000 	   -0.8211560000 	   -0.1105600000
H   	    0.0377210000 	   -2.5406410000 	    0.2307630000
H   	    2.3270140000 	    2.4056620000 	   -1.2445630000
H   	    3.8967080000 	    1.6862930000 	   -0.8850180000
H   	    1.9403240000 	    2.8642530000 	    1.1780790000
H   	    3.4407760000 	    3.6289340000 	    0.6259540000
H   	    3.5107430000 	    2.1353280000 	    1.5811420000
H   	    4.8665710000 	    0.0475030000 	   -0.0728120000
H   	    4.6295190000 	   -1.5325760000 	   -0.8539910000
H   	    4.5724550000 	   -1.4110150000 	    0.8942170000
