20
tauto -453.537334912
C   	   -2.1919040000 	   -1.5899790000 	    0.0181340000
N   	   -1.7799930000 	   -0.2021640000 	   -0.0960690000
C   	   -2.7971680000 	    0.8193830000 	    0.0584270000
C   	   -0.4532970000 	    0.1114820000 	   -0.0444450000
C   	   -0.0565800000 	    1.5069660000 	   -0.0313940000
C   	    1.2739400000 	    1.7481130000 	    0.0044830000
N   	    2.1623110000 	    0.7322720000 	    0.0206600000
N   	    0.4120160000 	   -0.8757650000 	   -0.0126680000
C   	    1.7668720000 	   -0.6199100000 	    0.0052500000
N   	    2.7084240000 	   -1.4844670000 	    0.0160380000
H   	   -3.1396680000 	   -1.7269160000 	   -0.5107970000
H   	   -2.3227040000 	   -1.8911780000 	    1.0667240000
H   	   -1.4290450000 	   -2.2271580000 	   -0.4265650000
H   	   -3.7774920000 	    0.3520400000 	   -0.0544570000
H   	   -2.7094290000 	    1.5913010000 	   -0.7136290000
H   	   -2.7624260000 	    1.3024430000 	    1.0446180000
H   	   -0.7637210000 	    2.3235560000 	   -0.0398350000
H   	    1.6895900000 	    2.7511210000 	    0.0224200000
H   	    3.1587570000 	    0.8897750000 	    0.0476370000
H   	    2.2856530000 	   -2.4104520000 	    0.0054230000
