8
tauto -245.974295699
C   	    1.0914410000 	    1.1908810000 	    0.0000000000
C   	    0.4267240000 	    0.0351590000 	    0.0000000000
C   	   -1.0205350000 	    0.0102010000 	    0.0000000000
N   	   -2.1771210000 	    0.0147870000 	    0.0000000000
O   	    0.9506790000 	   -1.2157660000 	    0.0000000000
H   	    0.5558720000 	    2.1318510000 	    0.0000000000
H   	    2.1776320000 	    1.2194270000 	    0.0000000000
H   	    1.9151300000 	   -1.1461040000 	   -0.0000010000
