16
tauto -454.914278523
O   	   -2.4602930000 	    1.2885600000 	   -0.1238250000
C   	   -1.6542520000 	    0.3989750000 	    0.0185950000
N   	   -1.8709940000 	   -0.9600900000 	   -0.1148230000
N   	   -0.7124230000 	   -1.7238770000 	   -0.1525650000
C   	    0.2547820000 	   -0.9321680000 	    0.1599090000
C   	    1.6731960000 	   -1.2264390000 	    0.0836490000
C   	    2.5079310000 	   -0.1842470000 	   -0.0952940000
C   	    2.0206450000 	    1.1969310000 	   -0.2190540000
C   	    0.7390700000 	    1.5207950000 	    0.0020080000
C   	   -0.1989400000 	    0.4586720000 	    0.4756220000
H   	   -2.6943450000 	   -1.3470000000 	   -0.5517870000
H   	    2.0127600000 	   -2.2575130000 	    0.0860750000
H   	    3.5750240000 	   -0.3585760000 	   -0.2067610000
H   	    2.7354890000 	    1.9625750000 	   -0.5085940000
H   	    0.3690850000 	    2.5387980000 	   -0.0848240000
H   	   -0.2863440000 	    0.5459020000 	    1.5755970000
