15
tauto -304.743324101
N   	    2.3724830000 	   -0.6823800000 	    0.0902090000
C   	    1.1980350000 	   -0.2236040000 	   -0.0348100000
C   	    0.7474360000 	    1.2160720000 	   -0.2496990000
C   	   -0.7019360000 	    1.2502350000 	    0.2506350000
C   	   -0.0291340000 	   -1.1139900000 	    0.0282730000
C   	   -1.2150590000 	   -0.1631840000 	    0.0420390000
N   	   -2.4472280000 	   -0.4205240000 	   -0.1063670000
H   	    3.0554400000 	    0.0777490000 	    0.0270530000
H   	    0.7847110000 	    1.4313090000 	   -1.3263210000
H   	    1.4109070000 	    1.9279440000 	    0.2512450000
H   	   -1.3425730000 	    1.9776140000 	   -0.2526010000
H   	   -0.7288620000 	    1.4714380000 	    1.3258150000
H   	   -0.0016300000 	   -1.7369860000 	    0.9299270000
H   	   -0.0646910000 	   -1.7945730000 	   -0.8304280000
H   	   -2.5861400000 	   -1.4273430000 	   -0.2302230000
