13
tauto -503.035667698
O   	   -1.3474390000 	   -2.1352540000 	    0.0000200000
C   	   -1.0831900000 	   -0.9626270000 	   -0.0001860000
N   	    0.2717980000 	   -0.4925970000 	   -0.0001660000
N   	    1.3988750000 	   -1.2515150000 	    0.0000900000
N   	    2.3766480000 	   -0.4303830000 	    0.0002130000
N   	    1.9718880000 	    0.8694960000 	   -0.0001180000
C   	    0.6667510000 	    0.8000860000 	   -0.0000580000
N   	   -0.2684780000 	    1.7922780000 	   -0.0001450000
C   	   -1.5962550000 	    1.4492770000 	    0.0001300000
C   	   -2.0139700000 	    0.1651450000 	    0.0000870000
H   	    0.0440890000 	    2.7512090000 	    0.0004170000
H   	   -2.2902450000 	    2.2826650000 	    0.0002570000
H   	   -3.0694680000 	   -0.0740840000 	    0.0002160000
