19
tauto -548.438814996
N   	    3.2622290000 	   -1.0777710000 	    0.0000040000
C   	    2.0677090000 	   -0.6353950000 	    0.0001640000
N   	    0.8946170000 	   -1.3735060000 	   -0.0005910000
C   	   -0.3835780000 	   -0.8288570000 	   -0.0001700000
C   	   -0.5343030000 	    0.5608050000 	   -0.0001200000
C   	   -1.8087340000 	    1.1261550000 	    0.0000420000
C   	   -2.9333010000 	    0.3173420000 	    0.0001680000
C   	   -2.7763110000 	   -1.0711820000 	    0.0001840000
C   	   -1.5159400000 	   -1.6489250000 	    0.0000130000
N   	    1.8633910000 	    0.7399430000 	    0.0011180000
C   	    0.6641060000 	    1.4280300000 	   -0.0000440000
O   	    0.6321900000 	    2.6434160000 	   -0.0006490000
H   	    3.2877920000 	   -2.0947520000 	   -0.0006980000
H   	    0.9891380000 	   -2.3774070000 	   -0.0006880000
H   	   -1.8810980000 	    2.2100270000 	    0.0000740000
H   	   -3.9264000000 	    0.7560100000 	    0.0002720000
H   	   -3.6522970000 	   -1.7148340000 	    0.0003520000
H   	   -1.4029250000 	   -2.7307960000 	    0.0000650000
H   	    2.7087240000 	    1.2959190000 	    0.0006710000
