18
tauto -439.122143502
C   	    2.4162800000 	   -0.9501430000 	    0.4918070000
C   	    1.2254160000 	   -0.6147640000 	   -0.3912460000
C   	    0.7369620000 	    0.8224140000 	   -0.1753350000
O   	    1.4481470000 	    1.8046010000 	   -0.1326910000
N   	    0.0411570000 	   -1.4344940000 	   -0.1193790000
C   	   -1.0668460000 	   -0.5798180000 	   -0.0387140000
C   	   -2.4273340000 	   -1.1812410000 	    0.0873570000
C   	   -0.7138380000 	    0.7249520000 	   -0.0132960000
O   	   -1.4667480000 	    1.8419540000 	    0.1765890000
H   	    3.2040100000 	   -0.2083890000 	    0.3297380000
H   	    2.8102390000 	   -1.9467170000 	    0.2694270000
H   	    2.1212480000 	   -0.9214140000 	    1.5450390000
H   	    1.5043700000 	   -0.6992680000 	   -1.4515520000
H   	   -0.0865170000 	   -2.2244920000 	   -0.7412020000
H   	   -2.6211630000 	   -1.8809420000 	   -0.7345970000
H   	   -3.2138960000 	   -0.4208430000 	    0.0597910000
H   	   -2.5172160000 	   -1.7397590000 	    1.0253540000
H   	   -2.3642120000 	    1.5824450000 	    0.4190360000
