19
tauto -552.208699702
O   	    3.8178510000 	   -1.0022270000 	   -0.0007130000
C   	    2.7067670000 	   -0.2386670000 	   -0.0001800000
C   	    2.5442170000 	    1.1081710000 	    0.0007810000
O   	    1.1899840000 	    1.3411790000 	    0.0012290000
C   	    0.6290620000 	    0.1186150000 	    0.0000610000
C   	   -0.8338520000 	    0.0212280000 	    0.0000100000
C   	   -1.4275260000 	   -1.2432420000 	    0.0007470000
C   	   -2.8113360000 	   -1.3574500000 	    0.0006970000
C   	   -3.6079370000 	   -0.2142580000 	   -0.0000840000
C   	   -3.0160910000 	    1.0457650000 	   -0.0008410000
C   	   -1.6314760000 	    1.1672250000 	   -0.0007980000
N   	    1.4844120000 	   -0.8590640000 	   -0.0010180000
H   	    4.5922760000 	   -0.4264410000 	   -0.0004810000
H   	    3.1944530000 	    1.9680030000 	    0.0014900000
H   	   -0.7894910000 	   -2.1224910000 	    0.0013160000
H   	   -3.2714040000 	   -2.3419890000 	    0.0013030000
H   	   -4.6910440000 	   -0.3063930000 	   -0.0001160000
H   	   -3.6351490000 	    1.9390840000 	   -0.0014730000
H   	   -1.1641610000 	    2.1477440000 	   -0.0013950000
