20
tauto -640.667708455
O   	   -0.8285200000 	    2.9245720000 	   -0.0001310000
C   	   -0.3038870000 	    1.8295710000 	    0.0000090000
N   	    1.0805600000 	    1.6965680000 	    0.0000150000
C   	    1.7291580000 	    0.4893620000 	    0.0000350000
N   	    3.0172850000 	    0.2411980000 	    0.0000240000
C   	    3.0274290000 	   -1.1250290000 	    0.0000600000
N   	    1.8549870000 	   -1.7192300000 	    0.0000770000
N   	    1.0082040000 	   -0.6525360000 	    0.0000620000
C   	   -0.3872310000 	   -0.6908430000 	    0.0000290000
C   	   -1.0487090000 	    0.5432170000 	   -0.0000130000
C   	   -2.4449580000 	    0.5630240000 	   -0.0000660000
C   	   -3.1573860000 	   -0.6244250000 	   -0.0000690000
C   	   -2.4763330000 	   -1.8460600000 	   -0.0000220000
C   	   -1.0906040000 	   -1.8924620000 	    0.0000280000
H   	    1.6332550000 	    2.5434980000 	   -0.0000330000
H   	    3.9463780000 	   -1.6961980000 	    0.0000690000
H   	   -2.9404140000 	    1.5293860000 	   -0.0000970000
H   	   -4.2432190000 	   -0.6080130000 	   -0.0001070000
H   	   -3.0373630000 	   -2.7767370000 	   -0.0000260000
H   	   -0.5425980000 	   -2.8286300000 	    0.0000600000
