11
tauto -430.723797665
O   	    2.3112510000 	   -0.9647110000 	    0.0000080000
C   	    1.2610820000 	   -0.3628090000 	    0.0000810000
C   	    1.1334430000 	    1.1110930000 	   -0.0001210000
N   	    0.0123760000 	    1.7341820000 	   -0.0000040000
N   	   -1.1145870000 	    0.9979990000 	    0.0001360000
N   	    0.0273140000 	   -1.0033440000 	    0.0000540000
C   	   -1.2121530000 	   -0.3830100000 	   -0.0001830000
O   	   -2.2681840000 	   -0.9722630000 	   -0.0000150000
H   	    2.0432610000 	    1.7013090000 	   -0.0000920000
H   	   -1.9800210000 	    1.5173810000 	    0.0001520000
H   	    0.0222630000 	   -2.0163990000 	    0.0000440000
