21
tauto -532.58323409
C   	    3.6970310000 	    0.7480820000 	   -0.0094100000
C   	    2.4430740000 	   -0.0988550000 	    0.0053960000
N   	    1.2680130000 	    0.5932050000 	    0.0282900000
C   	   -0.0155310000 	    0.0240780000 	    0.0171600000
C   	   -1.2324590000 	    0.6728160000 	    0.0053780000
C   	   -1.5015020000 	    2.1470670000 	   -0.0207120000
C   	   -2.2060890000 	   -0.3715340000 	    0.0015140000
O   	   -3.5659980000 	   -0.2090170000 	   -0.0578230000
C   	   -1.5642700000 	   -1.5810940000 	    0.0043430000
N   	   -0.2105960000 	   -1.3185570000 	    0.0074470000
H   	    0.5628020000 	   -1.9686020000 	    0.0034370000
O   	    2.4939280000 	   -1.3224320000 	   -0.0131270000
H   	    3.5107050000 	    1.8146260000 	    0.1455660000
H   	    4.1997430000 	    0.6122150000 	   -0.9714660000
H   	    4.3718300000 	    0.3839220000 	    0.7688600000
H   	    1.2998380000 	    1.6004870000 	    0.0505930000
H   	   -0.7220930000 	    2.6971130000 	   -0.5629610000
H   	   -1.5795690000 	    2.5921080000 	    0.9803240000
H   	   -2.4413900000 	    2.3527150000 	   -0.5466410000
H   	   -3.7945330000 	    0.5882260000 	    0.4344260000
H   	   -1.9542230000 	   -2.5871130000 	   -0.0067120000
