14
tauto -382.582329092
O   	    1.7872030000 	    1.2231600000 	   -0.0000250000
C   	    0.5292490000 	    0.6716480000 	   -0.0000030000
C   	   -0.6495660000 	    1.3990430000 	   -0.0000050000
C   	   -1.8753790000 	    0.7315450000 	    0.0000040000
C   	   -1.9065150000 	   -0.6568580000 	    0.0000010000
C   	   -0.7188110000 	   -1.3880800000 	   -0.0000020000
C   	    0.5012800000 	   -0.7294050000 	    0.0000000000
O   	    1.6625910000 	   -1.4348070000 	    0.0000090000
H   	    1.7185950000 	    2.1851800000 	    0.0001780000
H   	   -0.6123650000 	    2.4875060000 	   -0.0000150000
H   	   -2.7986570000 	    1.3037020000 	    0.0000070000
H   	   -2.8578770000 	   -1.1814680000 	    0.0000030000
H   	   -0.7194750000 	   -2.4741830000 	   -0.0000020000
H   	    2.3898820000 	   -0.7949180000 	   -0.0000090000
