14
tauto -487.019099768
O   	   -3.0132750000 	   -0.5759790000 	    0.0005160000
C   	   -1.8521280000 	   -0.2238750000 	   -0.0008210000
N   	   -0.7890170000 	   -1.1032840000 	   -0.0000410000
C   	    0.5189790000 	   -0.6732640000 	    0.0001070000
N   	    1.6178980000 	   -1.3634300000 	    0.0004710000
C   	    2.6172760000 	   -0.3988240000 	   -0.0004050000
C   	    2.1083010000 	    0.8616600000 	    0.0003920000
N   	    0.7316290000 	    0.6806950000 	   -0.0001100000
N   	   -0.2237340000 	    1.6382200000 	   -0.0002160000
C   	   -1.4332600000 	    1.2067880000 	   -0.0001130000
H   	   -0.9785470000 	   -2.0974760000 	    0.0004670000
H   	    3.6586180000 	   -0.6903960000 	   -0.0007120000
H   	    2.5414390000 	    1.8495280000 	    0.0006560000
H   	   -2.2277510000 	    1.9458580000 	   -0.0002330000
