16
tauto -525.401478843
C   	   -3.1347150000 	    0.0357510000 	    0.0001900000
O   	   -2.0515950000 	   -0.9001920000 	   -0.0000720000
C   	   -0.8296770000 	   -0.3867100000 	   -0.0001410000
N   	    0.1492820000 	   -1.3101050000 	   -0.0003640000
N   	   -0.6081740000 	    0.8915150000 	    0.0000430000
C   	    0.7322670000 	    1.2170800000 	   -0.0000460000
N   	    0.9700710000 	    2.5422780000 	    0.0000610000
N   	    1.7647460000 	    0.4052180000 	   -0.0002410000
C   	    1.5291600000 	   -0.9399790000 	   -0.0000180000
O   	    2.3585350000 	   -1.8217980000 	    0.0003880000
H   	   -4.0375250000 	   -0.5744130000 	   -0.0001360000
H   	   -3.0924360000 	    0.6662770000 	   -0.8906130000
H   	   -3.0926150000 	    0.6655480000 	    0.8915220000
H   	   -0.0717320000 	   -2.2962700000 	   -0.0000110000
H   	    0.2016970000 	    3.1906850000 	    0.0001820000
H   	    1.9234100000 	    2.8648930000 	    0.0001210000
