15
tauto -457.796351582
C   	    2.4222990000 	   -1.3468010000 	    0.0002300000
C   	    1.0794120000 	   -0.6938050000 	   -0.0005210000
O   	    1.1654140000 	    0.6448390000 	   -0.0002260000
C   	   -0.1073690000 	   -1.3358770000 	   -0.0000010000
C   	   -1.3086180000 	   -0.5453360000 	    0.0000330000
O   	   -2.5145000000 	   -1.1462240000 	    0.0005100000
C   	   -1.2409240000 	    0.8104740000 	   -0.0001760000
C   	    0.0295630000 	    1.4869330000 	   -0.0000340000
O   	    0.2396210000 	    2.6707360000 	    0.0001930000
H   	    2.9896910000 	   -1.0350030000 	   -0.8822820000
H   	    2.3281010000 	   -2.4349900000 	    0.0005390000
H   	    2.9887510000 	   -1.0350130000 	    0.8834570000
H   	   -0.1421420000 	   -2.4208520000 	    0.0002420000
H   	   -2.4011230000 	   -2.1052050000 	   -0.0028350000
H   	   -2.1337400000 	    1.4227190000 	   -0.0001270000
