16
tauto -400.786438824
O   	    3.7081960000 	    0.0127380000 	   -0.0000110000
C   	    2.5336940000 	    0.3447590000 	    0.0000070000
C   	    1.4257100000 	   -0.5786870000 	   -0.0000120000
C   	    0.1038970000 	   -0.2190490000 	    0.0000060000
N   	   -0.8690120000 	   -1.2096460000 	    0.0000180000
C   	   -2.2178340000 	   -0.9870370000 	   -0.0000020000
C   	   -2.7159630000 	    0.2693160000 	   -0.0000110000
C   	   -1.7744630000 	    1.3515280000 	   -0.0000020000
C   	   -0.4389630000 	    1.1262310000 	    0.0000070000
H   	    2.2753640000 	    1.4271950000 	    0.0000480000
H   	    1.6914370000 	   -1.6343360000 	   -0.0000240000
H   	   -0.5400850000 	   -2.1645690000 	    0.0000080000
H   	   -2.8352750000 	   -1.8790620000 	   -0.0000030000
H   	   -3.7849270000 	    0.4429370000 	   -0.0000250000
H   	   -2.1422740000 	    2.3743110000 	   -0.0000060000
H   	    0.2567990000 	    1.9567810000 	    0.0000070000
