19
tauto -656.662946803
O   	   -0.7777200000 	    2.9298430000 	    0.0000200000
C   	   -0.2675800000 	    1.8303430000 	   -0.0000890000
N   	    1.1180390000 	    1.6806900000 	    0.0000070000
C   	    1.7374300000 	    0.4623170000 	    0.0000220000
N   	    3.0120360000 	    0.1564940000 	    0.0000670000
N   	    3.0375840000 	   -1.2013000000 	    0.0000640000
N   	    1.8651120000 	   -1.7125840000 	    0.0000300000
N   	    1.0051170000 	   -0.6638810000 	   -0.0000040000
C   	   -0.3953120000 	   -0.6924750000 	   -0.0000240000
C   	   -1.0333930000 	    0.5527220000 	   -0.0000410000
C   	   -2.4282460000 	    0.5943230000 	   -0.0000360000
C   	   -3.1574840000 	   -0.5840710000 	   -0.0000210000
C   	   -2.4973260000 	   -1.8160520000 	   -0.0000100000
C   	   -1.1113640000 	   -1.8842820000 	   -0.0000110000
H   	    1.6826380000 	    2.5200340000 	    0.0000260000
H   	   -2.9106640000 	    1.5671610000 	   -0.0000530000
H   	   -4.2428450000 	   -0.5508990000 	   -0.0000220000
H   	   -3.0727580000 	   -2.7376000000 	    0.0000040000
H   	   -0.5801750000 	   -2.8303250000 	    0.0000040000
