10
tauto -355.514718795
O   	    2.2286530000 	   -0.0261530000 	   -0.0002010000
C   	    1.0236070000 	   -0.0875470000 	    0.0000110000
N   	    0.2653420000 	   -1.2506800000 	    0.0001730000
C   	   -1.0253930000 	   -1.1384670000 	   -0.0000200000
N   	   -1.7898810000 	    0.0051200000 	   -0.0001870000
C   	   -1.0899700000 	    1.0956690000 	   -0.0000500000
N   	    0.2569970000 	    1.1056350000 	    0.0002340000
H   	   -1.5987200000 	   -2.0649790000 	    0.0002400000
H   	   -1.5880230000 	    2.0639790000 	   -0.0000880000
H   	    0.7808510000 	    1.9717730000 	    0.0002770000
