16
tauto -509.116957516
O   	   -3.2696750000 	   -0.6845340000 	    0.0007440000
C   	   -2.1320720000 	   -0.2570480000 	   -0.0003020000
N   	   -1.0179240000 	   -1.0703140000 	   -0.0006460000
C   	    0.2763440000 	   -0.5943670000 	   -0.0002070000
N   	    1.2620350000 	   -1.4889740000 	    0.0001370000
C   	    2.5024570000 	   -1.0074380000 	    0.0005120000
C   	    2.8163130000 	    0.3534860000 	    0.0004970000
C   	    1.7758760000 	    1.2681270000 	    0.0002210000
C   	    0.4632520000 	    0.7980140000 	   -0.0001630000
N   	   -0.6114240000 	    1.6861540000 	   -0.0004760000
C   	   -1.7948410000 	    1.1943190000 	   -0.0007690000
H   	   -1.1558970000 	   -2.0742050000 	    0.0001220000
H   	    3.2953750000 	   -1.7528790000 	    0.0007490000
H   	    3.8525400000 	    0.6750760000 	    0.0007400000
H   	    1.9431180000 	    2.3415500000 	    0.0002260000
H   	   -2.6505200000 	    1.8681060000 	    0.0003760000
