12
tauto -360.488481798
C   	    2.4700190000 	   -0.3547930000 	    0.0254080000
C   	    0.9947910000 	   -0.1701140000 	    0.0068070000
O   	    0.5888180000 	    1.1237200000 	    0.0242440000
N   	   -0.8013370000 	    1.0899970000 	   -0.1396410000
C   	   -0.0336920000 	   -1.0340950000 	   -0.0421610000
C   	   -1.2591150000 	   -0.2416950000 	   -0.0196230000
O   	   -2.4323450000 	   -0.5385990000 	    0.0592640000
H   	    2.9074350000 	    0.1500240000 	    0.8922340000
H   	    2.9167890000 	    0.0749160000 	   -0.8765450000
H   	    2.7141370000 	   -1.4177380000 	    0.0712350000
H   	   -1.2246910000 	    1.7986650000 	    0.4478140000
H   	    0.0118860000 	   -2.1126350000 	   -0.0478960000
