13
tauto -344.476663036
O   	   -1.9641480000 	   -0.7619600000 	   -0.0001360000
C   	   -0.6345460000 	   -0.5410560000 	   -0.0000340000
C   	    0.4027670000 	   -1.3862890000 	   -0.0000320000
C   	    1.7321550000 	   -0.6718490000 	    0.0000130000
C   	    1.3634050000 	    0.8230260000 	    0.0000210000
C   	   -0.1595510000 	    0.8732990000 	   -0.0000320000
O   	   -0.8558720000 	    1.8600000000 	    0.0000320000
H   	   -2.1246430000 	   -1.7146090000 	    0.0011590000
H   	    0.3279850000 	   -2.4711390000 	   -0.0001320000
H   	    2.3277960000 	   -0.9466600000 	   -0.8787710000
H   	    2.3277340000 	   -0.9466350000 	    0.8788470000
H   	    1.7380260000 	    1.3559700000 	   -0.8793680000
H   	    1.7378820000 	    1.3559670000 	    0.8794820000
