13
tauto -307.380195711
O   	    2.2981680000 	   -0.1116130000 	   -0.0001470000
C   	    0.9380340000 	   -0.0249560000 	    0.0000650000
C   	    0.2649500000 	    1.1953930000 	   -0.0000270000
C   	   -1.1271460000 	    1.2155180000 	   -0.0000130000
C   	   -1.8512780000 	    0.0288510000 	    0.0000260000
C   	   -1.1680120000 	   -1.1864650000 	   -0.0000230000
C   	    0.2197860000 	   -1.2208070000 	    0.0000310000
H   	    2.6680550000 	    0.7801450000 	    0.0009170000
H   	    0.8273500000 	    2.1281880000 	   -0.0001320000
H   	   -1.6448990000 	    2.1714900000 	   -0.0000440000
H   	   -2.9373880000 	    0.0484690000 	    0.0000300000
H   	   -1.7229510000 	   -2.1214290000 	   -0.0000070000
H   	    0.7664870000 	   -2.1591590000 	    0.0000570000
