20
tauto -399.421348542
C   	    1.4187950000 	   -0.9161900000 	    1.3121650000
C   	    0.7929730000 	   -0.4876110000 	   -0.0154110000
C   	    1.6856870000 	   -0.8436240000 	   -1.1999660000
N   	   -0.5648920000 	   -1.0136190000 	   -0.1709090000
C   	   -1.4462920000 	    0.0205850000 	   -0.0392570000
C   	   -2.9171180000 	   -0.2398160000 	   -0.0214260000
N   	   -0.9260570000 	    1.2071700000 	    0.0269480000
C   	    0.4690840000 	    1.0124690000 	    0.0111880000
N   	    1.3812700000 	    1.8934120000 	    0.0266830000
H   	    1.6120440000 	   -1.9959840000 	    1.3262340000
H   	    0.7629400000 	   -0.6632970000 	    2.1521990000
H   	    2.3669700000 	   -0.3874910000 	    1.4478140000
H   	    1.9055480000 	   -1.9176730000 	   -1.2174340000
H   	    2.6243560000 	   -0.2875280000 	   -1.1204370000
H   	    1.2002730000 	   -0.5707280000 	   -2.1415280000
H   	   -0.8072560000 	   -1.9554000000 	    0.0982750000
H   	   -3.2309710000 	   -0.7102810000 	   -0.9589240000
H   	   -3.4486610000 	    0.7035710000 	    0.1057610000
H   	   -3.1819110000 	   -0.9165880000 	    0.7985750000
H   	    0.9456470000 	    2.8177760000 	    0.0466530000
