9
tauto -321.17212927
O   	    2.0403330000 	    0.0461540000 	    0.0456040000
C   	    0.8305200000 	    0.0831000000 	   -0.0205610000
N   	    0.0183900000 	   -1.0636570000 	   -0.1395940000
O   	   -1.3251530000 	   -0.7186140000 	    0.0344680000
C   	   -1.3457750000 	    0.6313550000 	    0.0285560000
C   	   -0.1293100000 	    1.1889130000 	   -0.0262950000
H   	    0.2343170000 	   -1.8854260000 	    0.4112520000
H   	   -2.3420850000 	    1.0529930000 	    0.0604440000
H   	    0.1249870000 	    2.2374980000 	   -0.0253200000
