15
tauto -341.864088234
O   	   -2.3348010000 	    0.0202000000 	    0.1088690000
C   	   -1.1223360000 	    0.0200420000 	   -0.0182050000
N   	   -0.4237360000 	   -1.1532140000 	   -0.0843340000
N   	    0.9748220000 	   -1.3042000000 	   -0.1542130000
C   	    1.6588510000 	   -0.1521380000 	    0.4257910000
C   	    1.1935490000 	    1.1493430000 	   -0.2222700000
C   	   -0.3174240000 	    1.3119670000 	   -0.0281440000
H   	   -0.9404370000 	   -1.9912230000 	    0.1432550000
H   	    1.2251480000 	   -1.3563050000 	   -1.1410000000
H   	    2.7333010000 	   -0.3108610000 	    0.2877900000
H   	    1.4556200000 	   -0.1478580000 	    1.5037270000
H   	    1.4390050000 	    1.1118420000 	   -1.2923580000
H   	    1.7258710000 	    2.0124090000 	    0.1934860000
H   	   -0.7630450000 	    1.9696040000 	   -0.7807300000
H   	   -0.5304930000 	    1.7774030000 	    0.9416610000
