30
tauto -763.356828362
O   	   -1.2293160000 	    2.7894080000 	   -0.4380640000
C   	   -0.5448550000 	    1.6359700000 	   -0.2487370000
C   	   -1.0380980000 	    0.3636550000 	   -0.0504900000
C   	   -2.4013330000 	   -0.1565920000 	    0.0261650000
C   	   -3.4283740000 	    0.6336440000 	    0.5616730000
C   	   -4.7332140000 	    0.1567640000 	    0.6197170000
C   	   -5.0349130000 	   -1.1228200000 	    0.1637550000
C   	   -4.0199450000 	   -1.9214460000 	   -0.3572770000
C   	   -2.7184240000 	   -1.4416210000 	   -0.4340210000
N   	    0.1057550000 	   -0.4188430000 	    0.0245220000
H   	    0.1240500000 	   -1.3850670000 	    0.3115330000
C   	    1.1811680000 	    0.4035820000 	   -0.0832570000
C   	    2.5748170000 	   -0.0550830000 	    0.0008610000
C   	    3.5867080000 	    0.8957620000 	    0.1617990000
C   	    4.9133760000 	    0.4961600000 	    0.2504920000
C   	    5.2468850000 	   -0.8549120000 	    0.1820760000
C   	    4.2444590000 	   -1.8053270000 	    0.0155170000
C   	    2.9153650000 	   -1.4078010000 	   -0.0785920000
N   	    0.8090300000 	    1.6573470000 	   -0.2668450000
H   	   -2.1386470000 	    2.5637490000 	   -0.6764300000
H   	   -3.1916510000 	    1.6126210000 	    0.9739200000
H   	   -5.5149950000 	    0.7841260000 	    1.0404250000
H   	   -6.0533970000 	   -1.4977340000 	    0.2169260000
H   	   -4.2457210000 	   -2.9212350000 	   -0.7196520000
H   	   -1.9417230000 	   -2.0603570000 	   -0.8792820000
H   	    3.3090080000 	    1.9444430000 	    0.2136500000
H   	    5.6926100000 	    1.2434360000 	    0.3761130000
H   	    6.2859210000 	   -1.1656020000 	    0.2541760000
H   	    4.4967350000 	   -2.8605080000 	   -0.0505040000
H   	    2.1470980000 	   -2.1622600000 	   -0.2382030000
