21
tauto -624.630986805
O   	   -0.8730960000 	    2.9144270000 	    0.0000170000
C   	   -0.3299490000 	    1.8259340000 	   -0.0001170000
N   	    1.0441770000 	    1.6998110000 	    0.0001090000
C   	    1.7216900000 	    0.4982340000 	    0.0000520000
N   	    3.0119420000 	    0.3257900000 	   -0.0000060000
C   	    3.1624470000 	   -1.0488970000 	   -0.0000090000
C   	    1.9615540000 	   -1.6860040000 	   -0.0000270000
N   	    1.0091940000 	   -0.6683280000 	   -0.0000250000
C   	   -0.3905210000 	   -0.6968850000 	   -0.0000400000
C   	   -1.0637440000 	    0.5320640000 	   -0.0000580000
C   	   -2.4586940000 	    0.5513010000 	   -0.0000290000
C   	   -3.1765930000 	   -0.6331300000 	    0.0000150000
C   	   -2.4944030000 	   -1.8514800000 	    0.0000480000
C   	   -1.1078780000 	   -1.8929820000 	    0.0000250000
H   	    1.5942860000 	    2.5482700000 	    0.0001170000
H   	    4.1466370000 	   -1.4980170000 	   -0.0000250000
H   	    1.6923630000 	   -2.7305620000 	   -0.0000910000
H   	   -2.9492430000 	    1.5203130000 	   -0.0000560000
H   	   -4.2623100000 	   -0.6151410000 	    0.0000290000
H   	   -3.0508980000 	   -2.7849500000 	    0.0001000000
H   	   -0.5867090000 	   -2.8451640000 	    0.0000750000
