19
tauto -423.094622811
C   	    2.4302910000 	    0.8073130000 	    0.0939950000
C   	    1.5453770000 	   -0.4275710000 	   -0.0005520000
C   	    0.0859660000 	   -0.2764230000 	   -0.0209290000
C   	   -0.8041130000 	   -1.4979670000 	   -0.0994160000
C   	   -2.2082200000 	   -0.9464120000 	    0.2254010000
C   	   -2.1412910000 	    0.5531900000 	   -0.1119520000
C   	   -0.6692940000 	    0.8444420000 	   -0.0310250000
O   	   -0.3277130000 	    2.1451640000 	   -0.0155740000
O   	    2.0539660000 	   -1.5348160000 	   -0.0582980000
H   	    2.2004930000 	    1.3965540000 	    0.9914500000
H   	    2.3150670000 	    1.4425800000 	   -0.7947500000
H   	    3.4722590000 	    0.4872110000 	    0.1486700000
H   	   -0.4839550000 	   -2.2787830000 	    0.5970830000
H   	   -0.7596560000 	   -1.9402680000 	   -1.1035970000
H   	   -2.4067410000 	   -1.0655580000 	    1.2960240000
H   	   -3.0053770000 	   -1.4642950000 	   -0.3152140000
H   	   -2.7153900000 	    1.1904140000 	    0.5688180000
H   	   -2.4930710000 	    0.7713100000 	   -1.1295320000
H   	    0.6340450000 	    2.2386240000 	   -0.0011130000
