10
tauto -355.473962143
O   	    2.2420360000 	    0.0131540000 	    0.0000070000
C   	    1.0261730000 	    0.0313470000 	   -0.0000180000
N   	    0.2546860000 	   -1.1147920000 	    0.0000030000
N   	   -1.0865810000 	   -1.1778010000 	   -0.0000050000
C   	   -1.7008340000 	   -0.0409630000 	    0.0000180000
N   	   -1.1101110000 	    1.2078300000 	    0.0000000000
C   	    0.1776460000 	    1.2377840000 	   -0.0000070000
H   	    0.7331390000 	   -2.0073930000 	    0.0000110000
H   	   -2.7845040000 	   -0.0720280000 	   -0.0000360000
H   	    0.6912080000 	    2.1985290000 	    0.0000270000
