16
tauto -379.954538974
C   	    2.8066820000 	   -0.1495700000 	    0.0654240000
C   	    1.3303080000 	    0.0669470000 	    0.0268230000
N   	    0.4870420000 	   -1.0423470000 	   -0.0189120000
N   	   -0.8021360000 	   -0.5442260000 	   -0.2532090000
C   	   -1.9237550000 	   -1.3481600000 	    0.1754520000
C   	    0.6098960000 	    1.2055110000 	    0.0409810000
C   	   -0.8040970000 	    0.8442640000 	   -0.0692320000
O   	   -1.8179170000 	    1.5184950000 	   -0.0047330000
H   	    3.1614690000 	   -0.6232800000 	   -0.8576720000
H   	    3.0818620000 	   -0.7988530000 	    0.9027830000
H   	    3.3249660000 	    0.8051360000 	    0.1762910000
H   	    0.7469770000 	   -1.7466450000 	   -0.7050370000
H   	   -2.0577110000 	   -2.2128970000 	   -0.4823850000
H   	   -2.8023170000 	   -0.7033340000 	    0.1081730000
H   	   -1.7965670000 	   -1.6918820000 	    1.2088660000
H   	    0.9761140000 	    2.2158520000 	    0.1549940000
