17
tauto -435.105144987
N   	   -3.2939410000 	   -0.1139600000 	    0.0003540000
C   	   -2.0224070000 	   -0.0124690000 	    0.0000140000
N   	   -1.1730540000 	    1.0937830000 	   -0.0004740000
C   	    0.1628180000 	    0.7010300000 	   -0.0000980000
C   	    1.3416110000 	    1.4221370000 	   -0.0000350000
C   	    2.5418810000 	    0.7028050000 	    0.0001400000
C   	    2.5451870000 	   -0.6886000000 	    0.0001250000
C   	    1.3503060000 	   -1.4161620000 	    0.0000170000
C   	    0.1649620000 	   -0.7039240000 	   -0.0000450000
N   	   -1.1632840000 	   -1.1021340000 	   -0.0002340000
H   	   -3.7356800000 	    0.8017170000 	    0.0002360000
H   	   -1.5064250000 	    2.0425320000 	    0.0012330000
H   	    1.3384670000 	    2.5088170000 	   -0.0000900000
H   	    3.4841820000 	    1.2433500000 	    0.0002510000
H   	    3.4907370000 	   -1.2235950000 	    0.0002000000
H   	    1.3540230000 	   -2.5026140000 	   -0.0000110000
H   	   -1.5194980000 	   -2.0429340000 	   -0.0000610000
