20
tauto -532.355186205
O   	    3.7843560000 	   -1.0840890000 	   -0.1218340000
C   	    2.7030870000 	   -0.2725680000 	   -0.0321090000
C   	    2.6366610000 	    1.0888740000 	    0.1238320000
N   	    1.2800850000 	    1.3601610000 	    0.1416370000
H   	    0.8634310000 	    2.2631140000 	    0.3001910000
C   	    0.6217730000 	    0.1810350000 	    0.0067520000
C   	   -0.8435690000 	    0.0539820000 	   -0.0053000000
C   	   -1.4083240000 	   -1.2198590000 	    0.1048540000
C   	   -2.7879440000 	   -1.3760210000 	    0.1043850000
C   	   -3.6217400000 	   -0.2650140000 	   -0.0037390000
C   	   -3.0654260000 	    1.0048830000 	   -0.1199290000
C   	   -1.6840810000 	    1.1635060000 	   -0.1241650000
N   	    1.4671600000 	   -0.8266100000 	   -0.1035130000
H   	    4.5794730000 	   -0.5420360000 	   -0.0576140000
H   	    3.3868280000 	    1.8597690000 	    0.2163230000
H   	   -0.7433320000 	   -2.0745040000 	    0.1881190000
H   	   -3.2166510000 	   -2.3710160000 	    0.1919990000
H   	   -4.7014810000 	   -0.3895090000 	   -0.0020020000
H   	   -3.7080320000 	    1.8764450000 	   -0.2145330000
H   	   -1.2684190000 	    2.1626760000 	   -0.2421660000
