10
tauto -301.366587957
O   	   -2.0377710000 	   -0.0164470000 	   -0.0061590000
C   	   -0.8345050000 	   -0.0630560000 	    0.0037880000
N   	   -0.0358090000 	   -1.2246020000 	    0.0081280000
C   	    1.1881510000 	   -0.8011780000 	    0.0025750000
N   	    1.3887650000 	    0.5373320000 	   -0.0513320000
C   	    0.0925580000 	    1.1743820000 	    0.0127740000
H   	    2.0445710000 	   -1.4711720000 	    0.0231570000
H   	    2.2698820000 	    0.9869750000 	    0.1323100000
H   	   -0.1098200000 	    1.8142450000 	   -0.8510240000
H   	   -0.0503770000 	    1.7515260000 	    0.9324400000
