10
tauto -359.313039035
O   	    1.3486040000 	    1.5613970000 	    0.0000840000
C   	    0.3856530000 	    0.8355440000 	   -0.0001360000
C   	   -1.0523160000 	    1.1298120000 	   -0.0000110000
C   	   -1.6967540000 	   -0.0519870000 	    0.0003430000
N   	   -0.8383480000 	   -1.1487500000 	   -0.0006370000
C   	    0.4825880000 	   -0.7282440000 	   -0.0001400000
O   	    1.4687720000 	   -1.4161980000 	    0.0002020000
H   	   -1.4992530000 	    2.1132200000 	   -0.0001780000
H   	   -2.7665100000 	   -0.2284030000 	    0.0005370000
H   	   -1.1198390000 	   -2.1159080000 	    0.0014820000
