12
tauto -360.492179508
C   	    2.4748920000 	   -0.3954210000 	    0.0150990000
C   	    1.0013120000 	   -0.1637600000 	   -0.0065990000
N   	    0.5322440000 	    1.1397800000 	   -0.1179170000
O   	   -0.8596860000 	    1.1004410000 	    0.0013260000
C   	   -0.0325700000 	   -1.0229670000 	   -0.0054520000
C   	   -1.2589540000 	   -0.2373910000 	    0.0072530000
O   	   -2.4243560000 	   -0.5266380000 	    0.0175100000
H   	    2.9421710000 	    0.1185400000 	    0.8628740000
H   	    2.9344880000 	   -0.0160610000 	   -0.9027580000
H   	    2.6878210000 	   -1.4624730000 	    0.1018740000
H   	    0.8783620000 	    1.8106860000 	    0.5621120000
H   	   -0.0042920000 	   -2.1023430000 	   -0.0111760000
