11
tauto -231.138939755
C   	   -1.9411960000 	   -0.0749310000 	   -0.0913940000
C   	   -0.7730620000 	   -0.6880940000 	    0.0980630000
C   	    0.5419370000 	   -0.0275290000 	    0.0245890000
O   	    0.5589600000 	    1.3392930000 	    0.0016510000
C   	    1.6856440000 	   -0.7094480000 	   -0.0624430000
H   	   -2.8809280000 	   -0.6128480000 	   -0.0171970000
H   	   -2.0105290000 	    0.9777110000 	   -0.3591280000
H   	   -0.7472070000 	   -1.7533400000 	    0.3177270000
H   	   -0.2285960000 	    1.6606710000 	    0.4597010000
H   	    1.6776660000 	   -1.7927240000 	   -0.1091750000
H   	    2.6379790000 	   -0.1937980000 	   -0.1180280000
