20
tauto -532.32775217
O   	   -3.7851440000 	   -0.9758060000 	    0.1731850000
C   	   -2.7889060000 	   -0.3011010000 	    0.0046820000
C   	   -2.5915370000 	    1.0457580000 	   -0.5243030000
C   	   -1.2913420000 	    1.3599090000 	   -0.3455870000
N   	   -1.4862260000 	   -0.7402350000 	    0.3473840000
N   	   -0.6095380000 	    0.3436690000 	    0.2829520000
C   	    0.7794080000 	    0.1037540000 	    0.1250180000
C   	    1.6693640000 	    1.1520310000 	    0.3662050000
C   	    3.0344010000 	    0.9422450000 	    0.2210450000
C   	    3.5217840000 	   -0.3131050000 	   -0.1347550000
C   	    2.6288110000 	   -1.3570280000 	   -0.3513490000
C   	    1.2572140000 	   -1.1563460000 	   -0.2293100000
H   	   -3.3708700000 	    1.6652240000 	   -0.9418790000
H   	   -0.7433520000 	    2.2450490000 	   -0.6437950000
H   	   -1.4079860000 	   -1.2891720000 	    1.1959670000
H   	    1.2912180000 	    2.1203270000 	    0.6846910000
H   	    3.7229310000 	    1.7625960000 	    0.4056990000
H   	    4.5908580000 	   -0.4762560000 	   -0.2366120000
H   	    2.9981990000 	   -2.3406090000 	   -0.6295980000
H   	    0.5553170000 	   -1.9614490000 	   -0.4221790000
