22
tauto -591.521046678
C   	    3.3881460000 	    1.6514850000 	    0.0001900000
C   	    2.3363400000 	    0.6033090000 	    0.0000310000
O   	    1.0169820000 	    1.0026040000 	    0.0000880000
C   	    0.3014340000 	   -0.1385890000 	   -0.0000090000
C   	   -1.1613530000 	   -0.0445990000 	    0.0000060000
C   	   -1.9166080000 	   -1.2200540000 	    0.0001750000
C   	   -3.3034170000 	   -1.1511310000 	    0.0001700000
C   	   -3.9433750000 	    0.0865130000 	   -0.0000010000
C   	   -3.1909270000 	    1.2577310000 	   -0.0001710000
C   	   -1.8023090000 	    1.1957580000 	   -0.0001590000
N   	    1.0237380000 	   -1.2166010000 	   -0.0001150000
C   	    2.3152250000 	   -0.7543840000 	   -0.0000740000
O   	    3.3231490000 	   -1.6548590000 	   -0.0001530000
H   	    3.3222150000 	    2.2912620000 	    0.8872780000
H   	    3.3215420000 	    2.2921550000 	   -0.8861990000
H   	    4.3809090000 	    1.1891240000 	   -0.0004360000
H   	   -1.3999660000 	   -2.1756270000 	    0.0002970000
H   	   -3.8881400000 	   -2.0673070000 	    0.0002960000
H   	   -5.0291980000 	    0.1379360000 	   -0.0000090000
H   	   -3.6872180000 	    2.2246270000 	   -0.0003170000
H   	   -1.2102180000 	    2.1065360000 	   -0.0002960000
H   	    4.1639260000 	   -1.1806850000 	   -0.0002300000
