15
tauto -471.014361885
O   	    1.3124680000 	    2.1584390000 	    0.0002370000
C   	    1.0806620000 	    0.9683900000 	   -0.0000710000
C   	    2.0483500000 	   -0.1190980000 	    0.0001260000
C   	    1.6588880000 	   -1.4156080000 	    0.0000660000
N   	    0.3466700000 	   -1.7840260000 	   -0.0000960000
N   	   -0.2553060000 	    0.4947120000 	   -0.0000950000
C   	   -0.6370000000 	   -0.8229900000 	   -0.0000900000
N   	   -1.9261830000 	   -0.9962760000 	   -0.0001220000
C   	   -2.4276690000 	    0.2955180000 	    0.0000350000
C   	   -1.4348010000 	    1.2259230000 	   -0.0000910000
H   	    3.0968900000 	    0.1481820000 	    0.0002980000
H   	    2.3726280000 	   -2.2326320000 	    0.0001540000
H   	    0.0563570000 	   -2.7493850000 	    0.0000070000
H   	   -3.4956230000 	    0.4683540000 	    0.0001020000
H   	   -1.4168390000 	    2.3042800000 	   -0.0001190000
