23
tauto -533.802730504
C   	   -3.8997690000 	    0.4697440000 	    0.8784410000
C   	   -3.4200860000 	   -0.1198390000 	   -0.4358640000
O   	   -2.2150300000 	   -0.8714970000 	   -0.2657700000
C   	   -1.0647830000 	   -0.1549850000 	   -0.2293270000
C   	    0.0902590000 	   -0.9928560000 	   -0.0667230000
C   	    1.3373140000 	   -0.4292070000 	   -0.0032100000
N   	    1.6230900000 	    0.9002560000 	    0.0126980000
C   	    3.0462580000 	    1.1221100000 	   -0.1637790000
C   	    3.6102310000 	   -0.1958310000 	    0.3808160000
N   	    2.5329710000 	   -1.1199400000 	    0.0412050000
O   	   -1.0636510000 	    1.0713430000 	   -0.3389160000
H   	   -4.8637250000 	    0.9713810000 	    0.7385680000
H   	   -3.1765600000 	    1.2021350000 	    1.2465750000
H   	   -4.0245780000 	   -0.3163590000 	    1.6300050000
H   	   -3.2539370000 	    0.6665980000 	   -1.1772730000
H   	   -4.1403590000 	   -0.8410630000 	   -0.8322880000
H   	   -0.0284080000 	   -2.0685670000 	   -0.0398490000
H   	    0.8849650000 	    1.5297660000 	   -0.2826430000
H   	    3.3922790000 	    1.9916910000 	    0.4012300000
H   	    3.3133510000 	    1.2558200000 	   -1.2218780000
H   	    3.7679690000 	   -0.1291530000 	    1.4669280000
H   	    4.5489350000 	   -0.4837530000 	   -0.0994260000
H   	    2.5205490000 	   -2.0342970000 	    0.4680860000
