11
tauto -430.675811248
O   	    2.6330010000 	    0.0352080000 	   -0.0243390000
C   	    1.4190410000 	    0.0091490000 	   -0.0474910000
C   	    0.5791750000 	    1.2494690000 	   -0.0021340000
N   	   -0.6902510000 	    1.2891750000 	    0.0805710000
N   	    0.6889200000 	   -1.1449160000 	   -0.0909820000
N   	   -0.6893570000 	   -1.1139700000 	    0.1729640000
C   	   -1.4111660000 	    0.0627250000 	    0.0274040000
O   	   -2.6095400000 	    0.0345090000 	   -0.1073240000
H   	    1.1453610000 	    2.1818600000 	    0.0114570000
H   	    1.1563930000 	   -1.9715610000 	    0.2611840000
H   	   -1.1769290000 	   -1.9081210000 	   -0.2238850000
