19
tauto -423.089239573
C   	    2.4442400000 	   -1.1731980000 	    0.0342870000
C   	    1.4557760000 	   -0.0434230000 	   -0.0055900000
O   	    1.9956640000 	    1.1929880000 	   -0.1016940000
C   	    0.1200470000 	   -0.1990540000 	    0.0482810000
C   	   -0.6294650000 	   -1.5116660000 	    0.1418390000
C   	   -2.0634670000 	   -1.1501270000 	   -0.2991720000
C   	   -2.2530890000 	    0.3006620000 	    0.1489820000
C   	   -0.8566040000 	    0.9186400000 	    0.0466960000
O   	   -0.6286600000 	    2.1088800000 	   -0.0081380000
H   	    3.0596940000 	   -1.1754750000 	   -0.8745140000
H   	    1.9531850000 	   -2.1433630000 	    0.1183380000
H   	    3.1163980000 	   -1.0578020000 	    0.8940490000
H   	    2.9577250000 	    1.1162330000 	   -0.1279220000
H   	   -0.6393740000 	   -1.8884670000 	    1.1749800000
H   	   -0.2068600000 	   -2.3045560000 	   -0.4850360000
H   	   -2.8110440000 	   -1.8339600000 	    0.1135900000
H   	   -2.1319420000 	   -1.2076770000 	   -1.3920710000
H   	   -2.5629230000 	    0.3541820000 	    1.2019100000
H   	   -2.9755160000 	    0.8749330000 	   -0.4366130000
