11
tauto -417.505839519
O   	    1.3966990000 	    1.1656570000 	    0.0004170000
C   	    1.3543850000 	   -0.1854710000 	    0.0002270000
C   	    0.0135920000 	   -0.7563950000 	    0.0001400000
C   	   -1.1581910000 	   -0.0875060000 	    0.0000380000
O   	   -1.2901880000 	    1.2348770000 	   -0.0004770000
O   	   -2.3643860000 	   -0.6920230000 	    0.0000060000
O   	    2.3693630000 	   -0.8522290000 	   -0.0005030000
H   	    2.3435570000 	    1.3800630000 	    0.0001620000
H   	   -0.0101010000 	   -1.8402380000 	   -0.0003600000
H   	   -2.2375190000 	    1.4377150000 	    0.0005810000
H   	   -2.2465570000 	   -1.6515580000 	    0.0016410000
