17
tauto -476.035840683
O   	    3.0920090000 	   -0.7445210000 	    0.0001500000
C   	    1.9902160000 	   -0.2200170000 	    0.0000460000
N   	    0.8351590000 	   -1.0400020000 	   -0.0002980000
C   	   -0.4156440000 	   -0.5368750000 	   -0.0003050000
O   	   -1.4689000000 	   -1.3642340000 	   -0.0006290000
C   	   -2.6550000000 	   -0.5207690000 	    0.0012730000
C   	   -2.1860050000 	    0.9585550000 	   -0.0008300000
C   	   -0.6871770000 	    0.7942290000 	   -0.0000950000
C   	    0.4169210000 	    1.6820110000 	    0.0001720000
C   	    1.6952080000 	    1.2027070000 	    0.0002810000
H   	    0.9918890000 	   -2.0398150000 	   -0.0002580000
H   	   -3.2291960000 	   -0.7841410000 	    0.8925730000
H   	   -3.2332130000 	   -0.7857560000 	   -0.8869120000
H   	   -2.5571760000 	    1.4921750000 	    0.8816200000
H   	   -2.5563660000 	    1.4895600000 	   -0.8852240000
H   	    0.2466890000 	    2.7568480000 	    0.0003150000
H   	    2.5552750000 	    1.8621400000 	    0.0005600000
