12
tauto -302.56891216
N   	   -2.0928040000 	    0.1118000000 	    0.0420210000
C   	   -0.8334620000 	    0.0281780000 	   -0.0281130000
O   	   -0.0929240000 	   -1.1153350000 	    0.0750750000
C   	    1.2859720000 	   -0.7920250000 	   -0.1216220000
C   	    1.3625900000 	    0.7026980000 	    0.1916380000
N   	    0.0306560000 	    1.0935980000 	   -0.2270380000
H   	   -2.4959810000 	   -0.8162490000 	    0.1472600000
H   	    1.5552850000 	   -0.9958300000 	   -1.1642240000
H   	    1.8862000000 	   -1.4163090000 	    0.5428080000
H   	    2.1398160000 	    1.2095850000 	   -0.3872160000
H   	    1.5432110000 	    0.8778280000 	    1.2625990000
H   	   -0.3406990000 	    1.9927680000 	    0.0418770000
