16
tauto -346.637127546
O   	    2.4522430000 	   -0.0736680000 	   -0.2844420000
C   	    1.1563650000 	    0.1317060000 	    0.0645670000
C   	    0.5087000000 	    1.3043820000 	   -0.0962380000
C   	   -0.9019530000 	    1.4970010000 	    0.1700430000
C   	   -1.8892110000 	    0.5743410000 	    0.0659710000
C   	   -1.7151090000 	   -0.7961410000 	   -0.3851970000
C   	   -0.6132680000 	   -1.5366270000 	   -0.1881900000
C   	    0.5115680000 	   -1.0667170000 	    0.6965950000
H   	    2.7702790000 	    0.6995750000 	   -0.7706700000
H   	    1.0707990000 	    2.1721450000 	   -0.4428700000
H   	   -1.2011120000 	    2.5198080000 	    0.3976420000
H   	   -2.9122970000 	    0.9148840000 	    0.2169930000
H   	   -2.5393350000 	   -1.2271240000 	   -0.9528720000
H   	   -0.5250600000 	   -2.5137940000 	   -0.6585720000
H   	    1.2642880000 	   -1.8450960000 	    0.8422640000
H   	    0.1119420000 	   -0.7787260000 	    1.6783120000
