31
tauto -983.141863933
O   	   -4.4793060000 	    0.5117620000 	   -0.7798460000
C   	   -4.2494310000 	   -0.7858410000 	   -0.2667600000
C   	   -2.8073040000 	   -0.8558160000 	    0.1966310000
C   	   -2.3739620000 	    0.3582140000 	    1.0304150000
C   	   -1.5909330000 	    1.1984390000 	    0.0142650000
O   	   -0.6599090000 	    2.0587320000 	    0.6099540000
O   	   -1.4511490000 	    0.0256760000 	    2.0559290000
O   	   -1.9622660000 	   -0.8811290000 	   -0.9676770000
C   	   -0.9925800000 	    0.1167450000 	   -0.9094760000
N   	    0.2678430000 	   -0.4413120000 	   -0.4066620000
C   	    1.4925930000 	    0.1609680000 	   -0.3374160000
N   	    1.8340000000 	    1.4715710000 	   -0.5649780000
C   	    3.1719500000 	    1.7545850000 	   -0.4056890000
N   	    4.1074980000 	    0.9200890000 	   -0.1391740000
C   	    3.8284270000 	   -0.4621400000 	    0.0945460000
O   	    4.7192590000 	   -1.2353900000 	    0.3677530000
C   	    2.4109780000 	   -0.8083470000 	   -0.0257240000
N   	    1.7747400000 	   -2.0263410000 	    0.1068540000
C   	    0.5220830000 	   -1.7765830000 	   -0.1309310000
H   	   -5.3342560000 	    0.5228290000 	   -1.2248240000
H   	   -4.4057890000 	   -1.5595860000 	   -1.0304470000
H   	   -4.9099940000 	   -1.0038160000 	    0.5875120000
H   	   -2.6484100000 	   -1.7805720000 	    0.7663320000
H   	   -3.2323930000 	    0.9090100000 	    1.4292380000
H   	   -2.2931720000 	    1.7904890000 	   -0.5778710000
H   	   -0.3886520000 	    1.6139490000 	    1.4331540000
H   	   -1.9292520000 	   -0.1877980000 	    2.8652050000
H   	   -0.8162340000 	    0.4878060000 	   -1.9249080000
H   	    1.1288150000 	    2.1930280000 	   -0.4638960000
H   	    3.4172910000 	    2.8086500000 	   -0.5409080000
H   	   -0.2804800000 	   -2.5006100000 	   -0.1389460000
