19
tauto -498.074332702
C   	    3.1147280000 	   -0.8663720000 	   -0.0000240000
C   	    1.6866800000 	   -0.4377380000 	   -0.0000170000
O   	    0.7320280000 	   -1.4373150000 	    0.0000120000
C   	   -0.4774780000 	   -0.8174630000 	    0.0000090000
C   	   -0.3260030000 	    0.5709550000 	   -0.0000100000
C   	   -1.4574960000 	    1.3924930000 	   -0.0000210000
C   	   -2.7029890000 	    0.7853450000 	   -0.0000090000
C   	   -2.8310170000 	   -0.6152330000 	    0.0000070000
C   	   -1.7182630000 	   -1.4435480000 	    0.0000160000
C   	    1.0988580000 	    0.7817650000 	    0.0000040000
O   	    1.6640390000 	    2.0198960000 	   -0.0000150000
H   	    3.1645160000 	   -1.9578740000 	   -0.0003290000
H   	    3.6500470000 	   -0.5096510000 	    0.8881470000
H   	    3.6501600000 	   -0.5091430000 	   -0.8879200000
H   	   -1.3555730000 	    2.4740060000 	   -0.0000280000
H   	   -3.5998990000 	    1.3990610000 	   -0.0000100000
H   	   -3.8231800000 	   -1.0587190000 	    0.0000130000
H   	   -1.8017140000 	   -2.5258840000 	    0.0000280000
H   	    2.6249820000 	    1.9263350000 	    0.0003900000
