15
tauto -474.782924533
O   	    2.4699430000 	    1.2731870000 	   -0.0000020000
C   	    1.5766630000 	    0.2758600000 	   -0.0000020000
N   	    1.9243330000 	   -0.9752640000 	    0.0000000000
O   	    0.7441060000 	   -1.7213910000 	    0.0000030000
C   	   -0.2990450000 	   -0.8639610000 	   -0.0000030000
C   	    0.1516800000 	    0.4497460000 	   -0.0000050000
C   	   -0.7529080000 	    1.5169960000 	    0.0000010000
C   	   -2.1002860000 	    1.2084550000 	    0.0000020000
C   	   -2.5392520000 	   -0.1326170000 	    0.0000010000
C   	   -1.6541390000 	   -1.1960360000 	   -0.0000010000
H   	    3.3541100000 	    0.8750340000 	    0.0000320000
H   	   -0.4039700000 	    2.5453700000 	    0.0000010000
H   	   -2.8374850000 	    2.0060210000 	    0.0000050000
H   	   -3.6071070000 	   -0.3352430000 	    0.0000020000
H   	   -1.9845460000 	   -2.2293640000 	    0.0000000000
