17
tauto -305.976770972
N   	    2.3812710000 	    0.1199570000 	    0.1446570000
C   	    1.1211590000 	    0.0251180000 	   -0.0461190000
N   	    0.4135360000 	   -1.1590960000 	   -0.2098020000
C   	   -0.9884150000 	   -1.2913830000 	    0.1794370000
C   	   -1.7842910000 	   -0.0559530000 	   -0.2193830000
C   	   -1.1022930000 	    1.1955730000 	    0.3274230000
C   	    0.3168050000 	    1.2936920000 	   -0.2324070000
H   	    2.8093580000 	   -0.8071890000 	    0.2176940000
H   	    0.9677190000 	   -1.9838700000 	   -0.0167210000
H   	   -1.0852330000 	   -1.4433670000 	    1.2674240000
H   	   -1.3933530000 	   -2.1832120000 	   -0.3112010000
H   	   -2.8072350000 	   -0.1504570000 	    0.1620070000
H   	   -1.8435000000 	    0.0032400000 	   -1.3139220000
H   	   -1.0684150000 	    1.1431000000 	    1.4245760000
H   	   -1.6712100000 	    2.0955730000 	    0.0690000000
H   	    0.8867720000 	    2.1102760000 	    0.2159030000
H   	    0.2636560000 	    1.4875940000 	   -1.3124520000
