23
tauto -571.664975892
C   	    3.5758570000 	    1.5217020000 	    0.1201520000
C   	    2.4056790000 	    0.6000170000 	    0.0454320000
N   	    1.0898530000 	    1.0362380000 	    0.0653100000
H   	    0.7938850000 	    1.9920330000 	    0.1839770000
C   	    0.2827240000 	   -0.0542070000 	   -0.0144020000
C   	   -1.1864370000 	    0.0046480000 	   -0.0102390000
C   	   -1.9040730000 	   -1.1883340000 	    0.1180030000
C   	   -3.2922150000 	   -1.1727270000 	    0.1304150000
C   	   -3.9836000000 	    0.0315810000 	    0.0167580000
C   	   -3.2755310000 	    1.2216090000 	   -0.1161160000
C   	   -1.8849630000 	    1.2082480000 	   -0.1325470000
N   	    0.9914850000 	   -1.1631430000 	   -0.0905280000
C   	    2.2885380000 	   -0.7649070000 	   -0.0537410000
O   	    3.2593710000 	   -1.7114200000 	   -0.1199720000
H   	    3.6103910000 	    2.0761020000 	    1.0663000000
H   	    3.5810580000 	    2.2510130000 	   -0.6990670000
H   	    4.5119500000 	    0.9576750000 	    0.0478770000
H   	   -1.3491970000 	   -2.1178450000 	    0.2053780000
H   	   -3.8386710000 	   -2.1069300000 	    0.2315700000
H   	   -5.0704270000 	    0.0418910000 	    0.0281440000
H   	   -3.8056400000 	    2.1654580000 	   -0.2144660000
H   	   -1.3518020000 	    2.1487170000 	   -0.2603960000
H   	    4.1182470000 	   -1.2742020000 	   -0.0753010000
