17
tauto -458.983163832
C   	    2.2334370000 	   -1.0747460000 	    0.5893570000
C   	    1.2019480000 	   -0.6129630000 	   -0.4199060000
C   	    0.7638010000 	    0.8322380000 	   -0.1884110000
O   	    1.4992860000 	    1.7959750000 	   -0.1673830000
O   	    0.0043260000 	   -1.4002720000 	   -0.3141670000
C   	   -1.0318180000 	   -0.5517920000 	   -0.0650260000
C   	   -2.3582050000 	   -1.2102490000 	    0.0758180000
C   	   -0.6803230000 	    0.7484450000 	    0.0136570000
O   	   -1.4247750000 	    1.8590630000 	    0.2546220000
H   	    3.1045580000 	   -0.4154250000 	    0.5319650000
H   	    2.5432390000 	   -2.1041240000 	    0.3903420000
H   	    1.8206400000 	   -1.0185130000 	    1.6015070000
H   	    1.5736430000 	   -0.7192970000 	   -1.4455620000
H   	   -2.6226840000 	   -1.7308240000 	   -0.8504470000
H   	   -3.1475520000 	   -0.4878100000 	    0.3040300000
H   	   -2.3266090000 	   -1.9534340000 	    0.8790250000
H   	   -2.3489690000 	    1.6057000000 	    0.3716330000
