20
tauto -548.635432299
C   	   -2.2436810000 	    1.7734270000 	   -0.1455640000
C   	   -1.8058540000 	    0.3299740000 	   -0.0240820000
C   	   -0.4268690000 	   -0.0396690000 	    0.0395920000
N   	    0.7692650000 	    0.7145400000 	   -0.0141230000
C   	    0.9464680000 	    2.1347940000 	    0.2001330000
C   	    1.7672310000 	   -0.1940090000 	   -0.0498540000
N   	    3.0967000000 	    0.1802790000 	   -0.0261590000
N   	    1.3621670000 	   -1.4548270000 	   -0.0313240000
C   	    0.0158970000 	   -1.3630210000 	    0.0328160000
O   	   -0.7569610000 	   -2.4351080000 	    0.0467400000
O   	   -2.6669140000 	   -0.5639580000 	    0.0279040000
H   	   -1.6356240000 	    2.3305220000 	   -0.8653200000
H   	   -2.1678380000 	    2.2758310000 	    0.8259340000
H   	   -3.2891970000 	    1.7878970000 	   -0.4588480000
H   	    0.2241190000 	    2.4902110000 	    0.9382340000
H   	    0.8207820000 	    2.7080490000 	   -0.7252260000
H   	    1.9513650000 	    2.3030200000 	    0.5963130000
H   	    3.3573950000 	    0.8818780000 	   -0.7070450000
H   	    3.6921920000 	   -0.6357280000 	   -0.0892760000
H   	   -1.6782660000 	   -2.0780760000 	    0.0710740000
