9
tauto -317.355842325
N   	    2.0234050000 	    0.1493740000 	    0.0000290000
C   	    0.7663220000 	    0.0373620000 	   -0.0000110000
O   	    0.0049680000 	   -1.0991740000 	   -0.0000410000
N   	   -1.3681990000 	   -0.7721890000 	    0.0000530000
C   	   -1.3977540000 	    0.5118340000 	    0.0000060000
N   	   -0.1545510000 	    1.0715620000 	   -0.0000760000
H   	    2.4647830000 	   -0.7662900000 	    0.0000580000
H   	   -2.3190780000 	    1.0781820000 	    0.0000250000
H   	    0.0985520000 	    2.0450980000 	    0.0002300000
