23
tauto -571.673987358
C   	   -3.8564770000 	   -1.3675560000 	    0.0901940000
C   	   -2.6311620000 	   -0.5177500000 	    0.0291830000
N   	   -2.6156870000 	    0.7988700000 	   -0.0511500000
C   	   -1.2994030000 	    1.1407890000 	   -0.0620190000
O   	   -0.9216520000 	    2.4375960000 	   -0.1415340000
C   	   -0.4726080000 	    0.0445570000 	    0.0062120000
C   	    0.9798940000 	   -0.1072210000 	    0.0057110000
C   	    1.5865860000 	   -1.3616600000 	   -0.1362750000
C   	    2.9704790000 	   -1.4914900000 	   -0.1265110000
C   	    3.7795990000 	   -0.3694600000 	    0.0181590000
C   	    3.1869880000 	    0.8836790000 	    0.1523110000
C   	    1.8049330000 	    1.0180860000 	    0.1489290000
N   	   -1.3740380000 	   -1.0166560000 	    0.0595960000
H   	   -1.1304310000 	   -1.9884670000 	    0.1671160000
H   	   -4.7293270000 	   -0.7298600000 	   -0.0593660000
H   	   -3.9557870000 	   -1.8643230000 	    1.0620820000
H   	   -3.8515390000 	   -2.1397270000 	   -0.6868090000
H   	   -1.7418500000 	    2.9486110000 	   -0.1959530000
H   	    0.9802110000 	   -2.2551620000 	   -0.2743880000
H   	    3.4173950000 	   -2.4761980000 	   -0.2396210000
H   	    4.8616640000 	   -0.4703070000 	    0.0235090000
H   	    3.8077840000 	    1.7693070000 	    0.2640740000
H   	    1.3502030000 	    1.9980120000 	    0.2571560000
