27
tauto -594.909832971
C   	    1.1185260000 	    2.4844070000 	    1.2751720000
C   	    1.3591030000 	    2.0980130000 	   -0.1805200000
N   	    1.6089300000 	    0.6751670000 	   -0.3483050000
C   	    2.8579840000 	    0.1235590000 	   -0.3399590000
C   	    2.7601350000 	   -1.2376980000 	   -0.1852560000
C   	    0.6752440000 	   -0.3360600000 	   -0.1516890000
C   	   -0.7831800000 	   -0.1480390000 	   -0.1160460000
C   	   -1.4684820000 	    0.5740600000 	   -1.1035320000
C   	   -2.8513450000 	    0.7033680000 	   -1.0586320000
C   	   -3.5825920000 	    0.0927220000 	   -0.0419400000
C   	   -2.9186670000 	   -0.6422370000 	    0.9345010000
C   	   -1.5314060000 	   -0.7539080000 	    0.9033780000
C   	    1.3785230000 	   -1.5208000000 	   -0.0614020000
O   	    0.8712120000 	   -2.7789290000 	    0.0775650000
H   	    0.9687930000 	    3.5656360000 	    1.3648360000
H   	    1.9743590000 	    2.1977460000 	    1.8948850000
H   	    0.2278410000 	    1.9809990000 	    1.6646780000
H   	    2.2330040000 	    2.6215580000 	   -0.5818030000
H   	    0.5016720000 	    2.3878850000 	   -0.7952770000
H   	    3.7319080000 	    0.7547470000 	   -0.4399910000
H   	    3.5666630000 	   -1.9574880000 	   -0.1812570000
H   	   -0.9099050000 	    1.0123120000 	   -1.9274190000
H   	   -3.3643850000 	    1.2687630000 	   -1.8327480000
H   	   -4.6648130000 	    0.1888930000 	   -0.0137430000
H   	   -3.4794040000 	   -1.1199610000 	    1.7340970000
H   	   -1.0097570000 	   -1.2971760000 	    1.6892110000
H   	   -0.0912440000 	   -2.7229770000 	   -0.0023100000
