14
tauto -415.884997402
C   	   -2.6328910000 	   -0.7512920000 	    0.0342740000
O   	   -1.8685590000 	    0.4620800000 	   -0.0071360000
C   	   -0.5599100000 	    0.3034910000 	   -0.0360900000
N   	    0.1871650000 	    1.4389330000 	   -0.0931230000
C   	    1.5694500000 	    1.0278020000 	    0.0487380000
N   	    0.0649080000 	   -0.8371700000 	   -0.0305370000
C   	    1.4240830000 	   -0.5118310000 	    0.0039050000
O   	    2.3538620000 	   -1.2796140000 	    0.0016490000
H   	   -3.6752580000 	   -0.4341520000 	    0.0542430000
H   	   -2.3813560000 	   -1.3249790000 	    0.9288090000
H   	   -2.4245910000 	   -1.3557780000 	   -0.8507250000
H   	   -0.1822130000 	    2.3155920000 	    0.2399580000
H   	    2.0096650000 	    1.3384930000 	    1.0027060000
H   	    2.2024150000 	    1.3797320000 	   -0.7704420000
