30
tauto -763.356436015
O   	    1.2790590000 	    2.8514450000 	   -0.1826110000
C   	    0.6219780000 	    1.6745720000 	   -0.0797410000
C   	    1.0150960000 	    0.3622250000 	    0.0160010000
C   	    2.3809780000 	   -0.1770330000 	    0.0307560000
C   	    2.6226520000 	   -1.4738780000 	   -0.4364190000
C   	    3.9118450000 	   -1.9883700000 	   -0.4529360000
C   	    4.9859040000 	   -1.2182350000 	   -0.0090440000
C   	    4.7550740000 	    0.0662130000 	    0.4701390000
C   	    3.4617850000 	    0.5810380000 	    0.4976120000
N   	   -0.1101450000 	   -0.4360720000 	    0.0410360000
C   	   -1.1451480000 	    0.3632000000 	   -0.0135470000
C   	   -2.5527140000 	   -0.0581590000 	    0.0167560000
C   	   -3.6052090000 	    0.8426930000 	   -0.1614620000
C   	   -4.9243060000 	    0.4030540000 	   -0.1242580000
C   	   -5.2064850000 	   -0.9421130000 	    0.0879200000
C   	   -4.1603310000 	   -1.8461980000 	    0.2620130000
C   	   -2.8433340000 	   -1.4096730000 	    0.2282580000
N   	   -0.7418800000 	    1.6758580000 	   -0.0942090000
H   	   -1.3144190000 	    2.5038790000 	   -0.1411400000
H   	    2.1813760000 	    2.6594100000 	   -0.4750180000
H   	    1.7798380000 	   -2.0663370000 	   -0.7812510000
H   	    4.0829470000 	   -2.9976160000 	   -0.8195960000
H   	    5.9944150000 	   -1.6231150000 	   -0.0273580000
H   	    5.5814420000 	    0.6675340000 	    0.8413650000
H   	    3.2883530000 	    1.5616520000 	    0.9389330000
H   	   -3.4094760000 	    1.8983170000 	   -0.3405060000
H   	   -5.7325620000 	    1.1161520000 	   -0.2646080000
H   	   -6.2371740000 	   -1.2858060000 	    0.1169090000
H   	   -4.3728330000 	   -2.8991880000 	    0.4282560000
H   	   -2.0169100000 	   -2.1009600000 	    0.3648240000
