20
tauto -457.259921484
N   	    3.7106520000 	    0.7177160000 	   -0.1973610000
O   	    2.4704120000 	    0.1163930000 	   -0.5499330000
C   	    1.9828390000 	   -0.6076540000 	    0.5873810000
C   	    0.6782450000 	   -1.2452250000 	    0.2473610000
C   	   -0.4695120000 	   -0.5408510000 	    0.1244470000
N   	   -1.6785590000 	   -1.1714270000 	   -0.1932420000
C   	   -2.8845090000 	   -0.5325290000 	   -0.2924380000
C   	   -2.9939940000 	    0.7987980000 	   -0.0984460000
C   	   -1.7864130000 	    1.5291160000 	    0.1992930000
C   	   -0.5945770000 	    0.9028220000 	    0.2960830000
H   	    3.6023960000 	    1.6849900000 	   -0.4996470000
H   	    4.3788220000 	    0.3060710000 	   -0.8489960000
H   	    1.8998910000 	    0.0917810000 	    1.4323490000
H   	    2.7198970000 	   -1.3692040000 	    0.8742060000
H   	    0.6662750000 	   -2.3150470000 	    0.0474000000
H   	   -1.6474360000 	   -2.1685270000 	   -0.3417340000
H   	   -3.7270550000 	   -1.1715000000 	   -0.5374680000
H   	   -3.9532790000 	    1.2945240000 	   -0.1829440000
H   	   -1.8393880000 	    2.6068820000 	    0.3325700000
H   	    0.3194580000 	    1.4579950000 	    0.4758660000
