13
tauto -340.672372464
C   	    2.4222280000 	   -0.5866440000 	    0.0001910000
C   	    0.9990450000 	   -0.1344540000 	   -0.0001280000
N   	   -0.0566130000 	   -0.9245720000 	   -0.0002350000
C   	   -1.1347740000 	   -0.0884030000 	    0.0000480000
O   	   -2.3963020000 	   -0.5773600000 	    0.0000410000
C   	   -0.7580330000 	    1.2236150000 	    0.0002390000
N   	    0.6291810000 	    1.1686740000 	   -0.0002430000
H   	    1.2512670000 	    1.9610230000 	   -0.0001720000
H   	    2.4391950000 	   -1.6778110000 	   -0.0042020000
H   	    2.9583270000 	   -0.2359680000 	    0.8892410000
H   	    2.9609910000 	   -0.2286800000 	   -0.8843140000
H   	   -2.3040600000 	   -1.5403050000 	    0.0001090000
H   	   -1.3140730000 	    2.1472170000 	    0.0002560000
