20
tauto -403.21885648
C   	   -2.7378460000 	    0.1287340000 	    0.8179280000
C   	   -2.0221420000 	   -0.0817790000 	   -0.5136840000
N   	   -0.6124100000 	   -0.3796420000 	   -0.3562720000
C   	   -0.0931320000 	   -1.6353270000 	   -0.2161300000
C   	    1.2470490000 	   -1.5374630000 	    0.0626820000
C   	    0.3901050000 	    0.5557380000 	   -0.1503360000
C   	    0.1556730000 	    2.0282820000 	   -0.2496500000
C   	    1.5446300000 	   -0.1516270000 	    0.1018940000
O   	    2.8023700000 	    0.3307300000 	    0.3416290000
H   	   -3.8010470000 	    0.3359940000 	    0.6555100000
H   	   -2.3033520000 	    0.9699500000 	    1.3678010000
H   	   -2.6490440000 	   -0.7650570000 	    1.4436350000
H   	   -2.1222820000 	    0.8051320000 	   -1.1491670000
H   	   -2.4741910000 	   -0.9158900000 	   -1.0608210000
H   	   -0.7262430000 	   -2.5059250000 	   -0.3312110000
H   	    1.9483310000 	   -2.3473120000 	    0.2081950000
H   	   -0.5680780000 	    2.3966530000 	    0.4889610000
H   	   -0.1997160000 	    2.3305690000 	   -1.2431180000
H   	    1.0896840000 	    2.5734030000 	   -0.0724100000
H   	    2.7678150000 	    1.2947890000 	    0.3372780000
