21
tauto -441.270926726
C   	    3.6904500000 	    0.7304330000 	   -0.2640430000
O   	    2.4482730000 	    0.1480480000 	   -0.5520240000
C   	    1.9796090000 	   -0.6460420000 	    0.5315330000
C   	    0.6621670000 	   -1.2715640000 	    0.2144990000
C   	   -0.4775390000 	   -0.5527270000 	    0.1069320000
N   	   -1.7013490000 	   -1.1679790000 	   -0.1834000000
C   	   -2.8996240000 	   -0.5119290000 	   -0.2610630000
C   	   -2.9856540000 	    0.8218900000 	   -0.0722730000
C   	   -1.7612990000 	    1.5368920000 	    0.1923070000
C   	   -0.5766000000 	    0.8942610000 	    0.2679100000
H   	    3.9817170000 	    1.3313070000 	   -1.1295450000
H   	    4.4664950000 	   -0.0313660000 	   -0.0816080000
H   	    3.6418000000 	    1.3836350000 	    0.6236930000
H   	    1.9168820000 	   -0.0052400000 	    1.4309280000
H   	    2.7203180000 	   -1.4302590000 	    0.7580960000
H   	    0.6349960000 	   -2.3430710000 	    0.0269290000
H   	   -1.6874820000 	   -2.1658850000 	   -0.3288130000
H   	   -3.7565000000 	   -1.1395130000 	   -0.4849620000
H   	   -3.9394130000 	    1.3307700000 	   -0.1395540000
H   	   -1.7951980000 	    2.6166760000 	    0.3150910000
H   	    0.3505880000 	    1.4371280000 	    0.4149190000
