27
tauto -778.244381466
O   	    0.2863350000 	    2.3092300000 	    0.0000390000
C   	    0.5447220000 	    1.1231640000 	   -0.0005540000
C   	    1.9074890000 	    0.5517940000 	   -0.0001720000
C   	    3.0072900000 	    1.4159640000 	    0.0000970000
C   	    4.2953290000 	    0.9149340000 	    0.0003400000
C   	    4.4914680000 	   -0.4711330000 	    0.0003330000
C   	    3.4183780000 	   -1.3442970000 	    0.0000950000
C   	    2.1129920000 	   -0.8366560000 	   -0.0001390000
N   	    1.0215430000 	   -1.6869200000 	   -0.0002960000
N   	   -0.4614120000 	    0.1546090000 	   -0.0003840000
C   	   -0.2623000000 	   -1.2217930000 	   -0.0002310000
N   	   -1.3426130000 	   -1.9338700000 	   -0.0000630000
C   	   -2.3690140000 	   -0.9840650000 	    0.0000410000
C   	   -1.8551000000 	    0.3222100000 	   -0.0001130000
C   	   -2.6574450000 	    1.4555490000 	   -0.0000550000
C   	   -4.0306580000 	    1.2375220000 	    0.0001880000
C   	   -4.5654650000 	   -0.0587500000 	    0.0003490000
C   	   -3.7479330000 	   -1.1819630000 	    0.0002750000
H   	    2.8088710000 	    2.4839220000 	    0.0000570000
H   	    5.1470170000 	    1.5881370000 	    0.0005190000
H   	    5.5007570000 	   -0.8744480000 	    0.0005300000
H   	    3.5782650000 	   -2.4198230000 	    0.0001150000
H   	    1.1412820000 	   -2.6887700000 	   -0.0000190000
H   	   -2.2233930000 	    2.4484610000 	   -0.0002030000
H   	   -4.7028280000 	    2.0912410000 	    0.0002390000
H   	   -5.6449260000 	   -0.1863340000 	    0.0005310000
H   	   -4.1568700000 	   -2.1878340000 	    0.0003980000
