22
tauto -649.503571878
C   	    3.4738520000 	    1.1033670000 	    0.0079730000
C   	    2.6009070000 	   -0.1192360000 	   -0.0025680000
C   	    1.1606280000 	    0.0313800000 	   -0.0004900000
C   	    0.3141070000 	    1.2418710000 	   -0.0021560000
C   	   -1.1121720000 	    0.7334170000 	   -0.0006050000
C   	   -1.0878470000 	   -0.6642880000 	    0.0011670000
C   	   -2.2507540000 	   -1.4097540000 	    0.0025650000
C   	   -3.4638300000 	   -0.7104710000 	    0.0022190000
C   	   -3.4902410000 	    0.6817430000 	    0.0002870000
C   	   -2.3030760000 	    1.4263280000 	   -0.0012030000
O   	    0.6515910000 	    2.4077340000 	   -0.0053000000
C   	    0.3331650000 	   -1.0702950000 	    0.0003860000
O   	    0.7081000000 	   -2.3206480000 	   -0.0000120000
O   	    3.0896380000 	   -1.2592360000 	   -0.0070670000
H   	    3.2028920000 	    1.7719850000 	   -0.8146500000
H   	    4.5210870000 	    0.8050650000 	   -0.0639480000
H   	    3.3048550000 	    1.6690060000 	    0.9304870000
H   	   -2.2244350000 	   -2.4957990000 	    0.0038090000
H   	   -4.3996620000 	   -1.2627040000 	    0.0033440000
H   	   -4.4472630000 	    1.1967200000 	   -0.0001080000
H   	   -2.3104000000 	    2.5129390000 	   -0.0029200000
H   	    1.7098690000 	   -2.2843850000 	   -0.0024130000
