16
tauto -379.961341598
C   	    0.1081700000 	    2.1623720000 	    0.0163860000
C   	    0.0373300000 	    0.6720080000 	    0.0271860000
C   	   -1.0184750000 	   -0.1653320000 	   -0.0258510000
C   	   -2.4850010000 	    0.1127010000 	   -0.0208530000
N   	   -0.6021910000 	   -1.5017860000 	   -0.1135220000
N   	    0.7853470000 	   -1.4844320000 	    0.1237290000
C   	    1.2454820000 	   -0.1621660000 	    0.0331160000
O   	    2.4172290000 	    0.1568210000 	   -0.0476490000
H   	   -0.8697150000 	    2.6193160000 	   -0.1633680000
H   	    0.7981880000 	    2.5003070000 	   -0.7639180000
H   	    0.4943960000 	    2.5429050000 	    0.9684340000
H   	   -2.6729700000 	    1.1885490000 	   -0.0174650000
H   	   -2.9640440000 	   -0.3151230000 	    0.8681770000
H   	   -2.9644400000 	   -0.3245950000 	   -0.9026120000
H   	   -1.0698220000 	   -2.1109560000 	    0.5536100000
H   	    1.3034460000 	   -2.1689410000 	   -0.4130240000
