13
tauto -398.603913395
O   	    1.5947440000 	    1.5164040000 	   -0.1056250000
C   	    0.6430930000 	    0.7823670000 	   -0.0147920000
C   	   -0.7556940000 	    1.3780070000 	    0.1300030000
N   	   -1.8311950000 	    0.4320150000 	   -0.0809530000
C   	   -1.6308100000 	   -0.9057340000 	   -0.0461830000
C   	   -0.4199010000 	   -1.5170590000 	    0.0127950000
C   	    0.8119180000 	   -0.7546660000 	    0.0211360000
O   	    1.9349330000 	   -1.2184850000 	    0.0386950000
H   	   -0.8351490000 	    2.2143230000 	   -0.5717860000
H   	   -0.8032430000 	    1.7979860000 	    1.1464710000
H   	   -2.7749950000 	    0.7778020000 	   -0.0217200000
H   	   -2.5430660000 	   -1.4964210000 	   -0.0884420000
H   	   -0.3542270000 	   -2.5986400000 	    0.0198350000
