12
tauto -414.641393742
O   	    2.2931860000 	   -0.9287970000 	    0.0443090000
C   	    1.0822060000 	   -0.3634380000 	   -0.0016650000
C   	    1.0347950000 	    1.1236750000 	   -0.1071930000
N   	   -0.0410800000 	    1.7871350000 	   -0.0403800000
C   	   -1.2641350000 	    1.0259630000 	    0.1284270000
N   	    0.0596950000 	   -1.1245770000 	    0.0585840000
C   	   -1.1960930000 	   -0.4923410000 	    0.0029670000
O   	   -2.2132080000 	   -1.1318820000 	   -0.1129980000
H   	    2.9840310000 	   -0.2541550000 	   -0.0074670000
H   	    1.9754480000 	    1.6677540000 	   -0.2366770000
H   	   -2.0028500000 	    1.3978490000 	   -0.5881630000
H   	   -1.6673910000 	    1.2729210000 	    1.1191760000
