13
tauto -398.623221607
O   	    1.6362470000 	    1.4819890000 	   -0.0177790000
C   	    0.6307780000 	    0.8186070000 	   -0.0014120000
C   	   -0.7518880000 	    1.4485360000 	    0.0167350000
C   	   -1.8922830000 	    0.4756010000 	   -0.0030590000
C   	   -1.6933410000 	   -0.8399010000 	   -0.0093200000
N   	   -0.4168560000 	   -1.4174620000 	   -0.0007050000
C   	    0.7673030000 	   -0.7232380000 	    0.0030700000
O   	    1.8491410000 	   -1.2651890000 	    0.0091720000
H   	   -0.7985380000 	    2.1383420000 	   -0.8367140000
H   	   -0.7943230000 	    2.0917420000 	    0.9068460000
H   	   -2.9065270000 	    0.8604410000 	   -0.0105120000
H   	   -2.5073470000 	   -1.5568650000 	   -0.0214350000
H   	   -0.3217850000 	   -2.4234560000 	   -0.0004750000
