22
tauto -346.44165006
C   	   -3.5745820000 	   -0.7993710000 	    0.0205690000
C   	   -3.0039670000 	    0.6039110000 	    0.2078690000
C   	   -1.6195830000 	    0.7752810000 	   -0.4106240000
N   	   -0.6555790000 	   -0.0959120000 	    0.2461820000
N   	    0.5525360000 	   -0.1487630000 	   -0.3981030000
C   	    1.5917490000 	   -0.3893410000 	    0.2958740000
C   	    2.9405910000 	   -0.5318770000 	   -0.3430320000
C   	    3.9521860000 	    0.4764600000 	    0.2077770000
H   	   -4.5501670000 	   -0.9008450000 	    0.5074870000
H   	   -2.8977630000 	   -1.5509540000 	    0.4376420000
H   	   -3.7044530000 	   -1.0255220000 	   -1.0442370000
H   	   -2.9537490000 	    0.8476230000 	    1.2792500000
H   	   -3.6745390000 	    1.3482800000 	   -0.2389710000
H   	   -1.3129850000 	    1.8336060000 	   -0.3666550000
H   	   -1.6353090000 	    0.4874900000 	   -1.4672840000
H   	   -0.5682410000 	    0.1143900000 	    1.2419170000
H   	    1.5328860000 	   -0.4997300000 	    1.3908610000
H   	    2.8166580000 	   -0.4073020000 	   -1.4234720000
H   	    3.3159720000 	   -1.5507490000 	   -0.1739190000
H   	    3.6266680000 	    1.5031310000 	    0.0092030000
H   	    4.9362900000 	    0.3365320000 	   -0.2511240000
H   	    4.0716620000 	    0.3663940000 	    1.2921520000
