37
tauto -730.079147084
O   	    0.0554230000 	    3.7931000000 	    0.0041370000
C   	    0.0029030000 	    2.4287690000 	   -0.0006290000
C   	   -1.2150440000 	    1.7563010000 	   -0.0141660000
C   	   -1.2174280000 	    0.3495850000 	   -0.0178210000
N   	   -2.4087860000 	   -0.3398530000 	   -0.0354350000
C   	   -2.4984040000 	   -1.7848150000 	   -0.1438500000
C   	   -3.9890780000 	   -2.0327890000 	   -0.3850960000
C   	   -4.6583950000 	   -0.8724610000 	    0.3560960000
C   	   -3.7059050000 	    0.2985930000 	    0.1011390000
C   	    0.0023660000 	   -0.3431500000 	   -0.0099430000
C   	    1.2224290000 	    0.3553340000 	    0.0025610000
N   	    2.4132520000 	   -0.3329640000 	    0.0130480000
C   	    3.7102730000 	    0.3135010000 	   -0.0887840000
C   	    4.6723860000 	   -0.8516490000 	   -0.3318540000
C   	    3.9970420000 	   -2.0170580000 	    0.3959190000
C   	    2.5085220000 	   -1.7767830000 	    0.1321170000
C   	    1.2196590000 	    1.7598130000 	    0.0092170000
H   	   -0.8483120000 	    4.1318530000 	    0.0086750000
H   	   -2.1446430000 	    2.3179420000 	   -0.0461580000
H   	   -2.1514050000 	   -2.2803570000 	    0.7779250000
H   	   -1.8789640000 	   -2.1567380000 	   -0.9700360000
H   	   -4.3141770000 	   -3.0161830000 	   -0.0333340000
H   	   -4.2063510000 	   -1.9675170000 	   -1.4576400000
H   	   -4.7007620000 	   -1.0883780000 	    1.4300520000
H   	   -5.6766310000 	   -0.6686760000 	    0.0124860000
H   	   -3.7059190000 	    1.0178320000 	    0.9304940000
H   	   -3.9817970000 	    0.8492740000 	   -0.8132540000
H   	    0.0039410000 	   -1.4260710000 	   -0.0148160000
H   	    3.9616670000 	    0.8572810000 	    0.8363360000
H   	    3.7237810000 	    1.0403660000 	   -0.9105980000
H   	    5.6837100000 	   -0.6438700000 	    0.0293090000
H   	    4.7335780000 	   -1.0644820000 	   -1.4055530000
H   	    4.1971690000 	   -1.9524450000 	    1.4718520000
H   	    4.3327240000 	   -2.9983480000 	    0.0480370000
H   	    1.8796200000 	   -2.1474020000 	    0.9519450000
H   	    2.1768890000 	   -2.2796980000 	   -0.7912280000
H   	    2.1332730000 	    2.3414040000 	    0.0396890000
