21
tauto -329.224610615
C   	    2.9163550000 	    0.2937010000 	    0.2263380000
N   	    1.8993340000 	   -0.5589220000 	   -0.3669620000
C   	    0.5414590000 	   -0.3115210000 	   -0.1015640000
C   	   -0.3319610000 	   -1.3062170000 	    0.1112710000
C   	   -1.8241500000 	   -1.1164440000 	    0.2074390000
C   	   -2.2510100000 	    0.2617510000 	   -0.2991160000
C   	   -1.3362730000 	    1.3368430000 	    0.2815290000
C   	    0.1092110000 	    1.1346430000 	   -0.1780920000
H   	    3.8976210000 	   -0.1357020000 	    0.0060390000
H   	    2.8262620000 	    0.4050320000 	    1.3192250000
H   	    2.8935260000 	    1.2912580000 	   -0.2229750000
H   	    2.1176060000 	   -1.5402350000 	   -0.2468190000
H   	    0.0443230000 	   -2.3280940000 	    0.1815490000
H   	   -2.1573960000 	   -1.2446180000 	    1.2491900000
H   	   -2.3350490000 	   -1.9007310000 	   -0.3668170000
H   	   -3.2973090000 	    0.4586630000 	   -0.0372860000
H   	   -2.1826790000 	    0.2847270000 	   -1.3954530000
H   	   -1.3790300000 	    1.2867930000 	    1.3782380000
H   	   -1.6763410000 	    2.3392790000 	   -0.0037400000
H   	    0.7728440000 	    1.7578680000 	    0.4343470000
H   	    0.2385050000 	    1.4816800000 	   -1.2135890000
