10
tauto -405.722818814
C   	    1.2513980000 	    1.0868890000 	    0.0000770000
N   	    2.0437130000 	    0.0567040000 	    0.0000060000
N   	    1.2396150000 	   -1.0448490000 	   -0.0001110000
H   	    1.6450340000 	   -1.9658350000 	    0.0005250000
C   	   -0.0643440000 	   -0.6833760000 	   -0.0000220000
N   	   -1.3046800000 	   -1.1328490000 	   -0.0000280000
N   	   -2.0447360000 	    0.0018900000 	    0.0001170000
N   	   -1.3505540000 	    1.0894220000 	   -0.0000730000
N   	   -0.0600110000 	    0.6621360000 	   -0.0000450000
H   	    1.5692170000 	    2.1175790000 	    0.0000820000
