19
tauto -552.242921965
O   	   -2.8601260000 	    1.3276240000 	   -0.4493240000
C   	   -1.8618770000 	    0.7692200000 	   -0.0728640000
C   	   -0.6113560000 	    1.5008860000 	    0.3642190000
C   	    0.6647480000 	    0.7283660000 	    0.1412900000
C   	    1.8975690000 	    1.3656450000 	    0.0320370000
C   	    3.0734540000 	    0.6395740000 	   -0.1214520000
C   	    3.0186700000 	   -0.7502700000 	   -0.1706390000
C   	    1.7975220000 	   -1.4045030000 	   -0.0765660000
C   	    0.6237410000 	   -0.6676310000 	    0.0762410000
N   	   -0.6114190000 	   -1.3347590000 	    0.1693260000
C   	   -1.8554270000 	   -0.7696810000 	    0.0407990000
O   	   -2.8760410000 	   -1.4199180000 	    0.0207990000
H   	   -0.7398420000 	    1.6926040000 	    1.4418870000
H   	   -0.5963060000 	    2.4786100000 	   -0.1262010000
H   	    1.9315660000 	    2.4525470000 	    0.0735290000
H   	    4.0257150000 	    1.1551640000 	   -0.2039140000
H   	    3.9294830000 	   -1.3303360000 	   -0.2907780000
H   	    1.7481540000 	   -2.4900450000 	   -0.1284990000
H   	   -0.6117710000 	   -2.3465260000 	    0.1985080000
