14
tauto -490.817712311
O   	    1.6437800000 	    2.0784400000 	    0.0000670000
C   	    1.2024930000 	    0.9395590000 	   -0.0000920000
C   	    2.0527340000 	   -0.2720770000 	   -0.0000030000
C   	    1.5528460000 	   -1.5257110000 	    0.0000170000
N   	    0.1925440000 	   -1.7854970000 	   -0.0000250000
C   	   -0.2163380000 	    0.5914900000 	   -0.0000650000
C   	   -0.6310890000 	   -0.7113490000 	   -0.0000180000
O   	   -1.9526370000 	   -0.8180820000 	    0.0000310000
N   	   -2.4853810000 	    0.4901970000 	   -0.0000010000
C   	   -1.4586630000 	    1.2914270000 	    0.0000170000
H   	    3.1270150000 	   -0.1240330000 	    0.0000270000
H   	    2.1834110000 	   -2.4082510000 	    0.0000550000
H   	   -0.1744180000 	   -2.7244040000 	    0.0001600000
H   	   -1.6271870000 	    2.3608880000 	    0.0000150000
