19
tauto -365.116819146
C   	   -2.7935150000 	   -0.3488470000 	    0.3213480000
N   	   -1.8634420000 	    0.5979480000 	   -0.2740350000
C   	   -0.4956130000 	    0.3677850000 	   -0.1408570000
C   	    0.4456750000 	    1.3251800000 	   -0.0903730000
C   	    1.9114630000 	    1.0089500000 	    0.0445550000
C   	    2.0838320000 	   -0.4543840000 	    0.4539580000
C   	    1.1278270000 	   -1.3142390000 	   -0.3570480000
O   	   -0.2307510000 	   -0.9658550000 	   -0.1044080000
H   	   -3.8110820000 	   -0.0167210000 	    0.0985850000
H   	   -2.6852810000 	   -0.4495440000 	    1.4121290000
H   	   -2.6490190000 	   -1.3326370000 	   -0.1276360000
H   	   -2.0889510000 	    1.5590110000 	   -0.0566510000
H   	    0.1287860000 	    2.3633870000 	   -0.1411390000
H   	    2.3747670000 	    1.6619130000 	    0.7951060000
H   	    2.4502010000 	    1.1968450000 	   -0.8966730000
H   	    1.8491830000 	   -0.5805550000 	    1.5177100000
H   	    3.1123620000 	   -0.7988080000 	    0.2969060000
H   	    1.2056700000 	   -2.3743510000 	   -0.1025230000
H   	    1.3254430000 	   -1.1940150000 	   -1.4318000000
