19
tauto -552.246980712
O   	    0.6565370000 	    2.6961670000 	    0.0093800000
C   	    0.7257980000 	    1.3463490000 	    0.0049750000
C   	   -0.4956190000 	    0.5460780000 	    0.0004040000
C   	   -1.7912140000 	    1.0847410000 	   -0.0218270000
C   	   -2.9072140000 	    0.2706050000 	   -0.0177850000
C   	   -2.7448000000 	   -1.1196440000 	    0.0048600000
C   	   -1.4824520000 	   -1.6784550000 	    0.0165760000
C   	   -0.3471940000 	   -0.8533500000 	    0.0106510000
N   	    0.9160900000 	   -1.3970880000 	    0.0102660000
C   	    1.9459140000 	    0.7646610000 	   -0.0053190000
C   	    2.1128060000 	   -0.6797180000 	   -0.0075400000
O   	    3.1795910000 	   -1.2715920000 	   -0.0175400000
H   	   -0.2555660000 	    2.9862310000 	    0.1270570000
H   	   -1.9448230000 	    2.1623310000 	   -0.0559240000
H   	   -3.9011250000 	    0.7068590000 	   -0.0362850000
H   	   -3.6168880000 	   -1.7679020000 	    0.0087060000
H   	   -1.3542080000 	   -2.7583010000 	    0.0281070000
H   	    1.0292030000 	   -2.4020410000 	    0.0139520000
H   	    2.8456040000 	    1.3682330000 	   -0.0021640000
