12
tauto -410.838294746
N   	   -2.3218640000 	   -1.0246470000 	   -0.0003800000
C   	   -1.2465280000 	   -0.3454200000 	   -0.0001430000
C   	   -1.1021860000 	    1.1226500000 	    0.0002590000
N   	    0.0220370000 	    1.7365530000 	    0.0000310000
N   	    1.1422810000 	    0.9868180000 	   -0.0001680000
N   	   -0.0198420000 	   -1.0028060000 	    0.0001400000
C   	    1.2176370000 	   -0.3980780000 	    0.0007540000
O   	    2.2716320000 	   -0.9945910000 	   -0.0002620000
H   	   -3.1318110000 	   -0.4070180000 	   -0.0002890000
H   	   -1.9970410000 	    1.7385970000 	    0.0003570000
H   	    2.0143380000 	    1.4935970000 	   -0.0004060000
H   	   -0.0303610000 	   -2.0147980000 	   -0.0001460000
