12
tauto -414.646237604
O   	    2.3803830000 	   -0.8937210000 	   -0.0000100000
C   	    1.1607010000 	   -0.3168120000 	   -0.0000080000
C   	    1.0382300000 	    1.1187460000 	   -0.0000100000
N   	   -0.1079630000 	    1.7202540000 	   -0.0000080000
N   	   -1.1917990000 	    0.9514950000 	    0.0000160000
C   	    0.0404760000 	   -1.0809030000 	    0.0000000000
C   	   -1.2627620000 	   -0.4497890000 	   -0.0000150000
O   	   -2.3500660000 	   -1.0009890000 	    0.0000050000
H   	    3.0669110000 	   -0.2140960000 	    0.0001550000
H   	    1.9165190000 	    1.7611510000 	   -0.0000080000
H   	   -2.0755680000 	    1.4444900000 	    0.0000220000
H   	    0.0880770000 	   -2.1635580000 	    0.0000120000
