15
tauto -341.873220047
N   	    2.3503000000 	    0.1352730000 	    0.0255630000
C   	    1.0845310000 	    0.0422110000 	   -0.0357590000
O   	    0.4494080000 	   -1.1604710000 	   -0.1321710000
C   	   -0.9210910000 	   -1.2501150000 	    0.2562040000
C   	   -1.7332630000 	   -0.0988860000 	   -0.3053280000
C   	   -1.1181840000 	    1.1974470000 	    0.1972990000
N   	    0.2989480000 	    1.1732800000 	   -0.1038460000
H   	    2.7560820000 	   -0.7977920000 	    0.0155300000
H   	   -0.9847560000 	   -1.2642080000 	    1.3540120000
H   	   -1.2628010000 	   -2.2174790000 	   -0.1191310000
H   	   -2.7766920000 	   -0.1826520000 	    0.0160390000
H   	   -1.7037990000 	   -0.1284860000 	   -1.3999980000
H   	   -1.3097220000 	    1.3010860000 	    1.2784390000
H   	   -1.5667810000 	    2.0635160000 	   -0.3003190000
H   	    0.8365120000 	    2.0059720000 	    0.0862860000
