12
tauto -248.351613133
C   	   -2.4762530000 	   -0.2445240000 	    0.0544920000
C   	   -1.1308010000 	    0.4178740000 	    0.0972510000
C   	    0.0116180000 	   -0.1992210000 	   -0.1984000000
N   	    1.2639450000 	    0.4369610000 	   -0.3133990000
O   	    2.2646420000 	   -0.3401160000 	    0.3295420000
H   	   -3.1281640000 	    0.2146990000 	   -0.6989310000
H   	   -2.9912950000 	   -0.1609300000 	    1.0190210000
H   	   -2.3838960000 	   -1.3085590000 	   -0.1875730000
H   	   -1.1075560000 	    1.4757660000 	    0.3654090000
H   	    0.0486080000 	   -1.2551430000 	   -0.4584760000
H   	    1.2581690000 	    1.3312370000 	    0.1718520000
H   	    2.9120030000 	   -0.4796440000 	   -0.3739040000
