16
tauto -267.80796113
C   	   -2.1304010000 	   -0.9488830000 	    0.0209480000
C   	   -1.0430940000 	    0.0907030000 	   -0.0094600000
N   	    0.2396920000 	   -0.4778590000 	    0.1100110000
N   	    1.3230360000 	    0.4528420000 	   -0.0803990000
C   	    2.5753140000 	   -0.2894550000 	   -0.0117700000
C   	   -1.2839590000 	    1.4043380000 	   -0.0461150000
H   	   -2.0808220000 	   -1.5361910000 	    0.9442090000
H   	   -2.0307680000 	   -1.6491170000 	   -0.8190650000
H   	   -3.1148030000 	   -0.4806220000 	   -0.0483540000
H   	    0.3596190000 	   -1.2253040000 	   -0.5695160000
H   	    1.2805770000 	    1.0391440000 	    0.7525380000
H   	    2.6914490000 	   -0.8921380000 	   -0.9204760000
H   	    2.6424770000 	   -0.9573520000 	    0.8606660000
H   	    3.3989020000 	    0.4291000000 	    0.0141800000
H   	   -2.3053460000 	    1.7698870000 	   -0.0397550000
H   	   -0.4875400000 	    2.1374920000 	   -0.1033390000
