17
tauto -493.062158002
O   	    3.2751480000 	   -0.7242220000 	   -0.0013000000
C   	    2.1129770000 	   -0.3717120000 	   -0.0001410000
N   	    1.0094110000 	   -1.1703770000 	    0.0005480000
C   	   -0.2003960000 	   -0.6324390000 	    0.0003860000
C   	   -1.3470390000 	   -1.5050360000 	    0.0004570000
C   	   -2.6058290000 	   -0.9952180000 	    0.0000130000
C   	   -2.8530000000 	    0.4197140000 	   -0.0005410000
C   	   -1.8087030000 	    1.2845280000 	   -0.0005530000
C   	   -0.4650350000 	    0.7842000000 	   -0.0000780000
C   	    0.6475840000 	    1.5965160000 	    0.0004120000
N   	    1.8595200000 	    1.0440280000 	    0.0008770000
H   	   -1.1534380000 	   -2.5729980000 	    0.0008810000
H   	   -3.4567390000 	   -1.6723070000 	    0.0000750000
H   	   -3.8758200000 	    0.7842180000 	   -0.0009820000
H   	   -1.9680750000 	    2.3610710000 	   -0.0010160000
H   	    0.5896050000 	    2.6827170000 	    0.0006530000
H   	    2.6974070000 	    1.6122030000 	    0.0010910000
