16
tauto -509.071221959
O   	    1.8119850000 	    2.0182240000 	   -0.0001160000
C   	    1.3638850000 	    0.8885850000 	   -0.0000330000
N   	    2.1967580000 	   -0.2245990000 	    0.0003020000
N   	    1.8618150000 	   -1.5375390000 	   -0.0000530000
N   	    0.6503350000 	   -1.8639500000 	   -0.0001150000
C   	   -0.3406180000 	   -0.8702990000 	   -0.0001000000
C   	   -0.0453460000 	    0.4960980000 	   -0.0000660000
C   	   -1.0700410000 	    1.4474220000 	   -0.0000100000
C   	   -2.3853310000 	    1.0236080000 	    0.0000440000
C   	   -2.6867250000 	   -0.3480980000 	    0.0000780000
C   	   -1.6775720000 	   -1.2916730000 	   -0.0000050000
H   	    3.1953670000 	   -0.0622340000 	    0.0002980000
H   	   -0.8032610000 	    2.5001310000 	   -0.0000060000
H   	   -3.1912290000 	    1.7521310000 	    0.0001040000
H   	   -3.7248210000 	   -0.6693980000 	    0.0001470000
H   	   -1.8838010000 	   -2.3576490000 	    0.0000010000
