12
tauto -356.730569087
N   	    2.3009050000 	   -0.6865910000 	    0.0454270000
C   	    1.1420940000 	   -0.1742500000 	   -0.0177470000
N   	    0.7127490000 	    1.1439230000 	   -0.1241580000
C   	   -0.7273040000 	    1.2425930000 	    0.0382210000
N   	   -0.0190500000 	   -0.9511110000 	   -0.0120810000
C   	   -1.1779030000 	   -0.2173740000 	    0.0056880000
O   	   -2.3115270000 	   -0.6334680000 	    0.0029300000
H   	    3.0199590000 	    0.0326340000 	    0.0036740000
H   	    1.3090640000 	    1.8575380000 	    0.2653040000
H   	   -1.2078320000 	    1.7983850000 	   -0.7729080000
H   	   -1.0283260000 	    1.6889060000 	    0.9942600000
H   	    0.0158050000 	   -1.9590770000 	   -0.0350580000
