17
tauto -251.813845597
C   	    2.2992520000 	   -0.6444860000 	    0.0560050000
C   	    1.3508380000 	    0.5230150000 	    0.0896700000
C   	    0.0209510000 	    0.4391380000 	   -0.0692570000
C   	   -0.8617070000 	    1.6572620000 	   -0.0192860000
N   	   -0.6327350000 	   -0.7645220000 	   -0.3659120000
C   	   -1.9458230000 	   -1.0285340000 	    0.1959730000
H   	    2.5460440000 	   -0.9569770000 	   -0.9683240000
H   	    1.8930900000 	   -1.5249400000 	    0.5739130000
H   	    3.2424100000 	   -0.3957740000 	    0.5521000000
H   	    1.7820340000 	    1.5126260000 	    0.2154310000
H   	   -0.2554050000 	    2.5605000000 	    0.0814430000
H   	   -1.5575230000 	    1.6237880000 	    0.8279350000
H   	   -1.4610840000 	    1.7413440000 	   -0.9337750000
H   	   -0.0179640000 	   -1.5636910000 	   -0.2892890000
H   	   -2.6708340000 	   -0.2964650000 	   -0.1721460000
H   	   -1.9737060000 	   -1.0132360000 	    1.2975790000
H   	   -2.2789800000 	   -2.0138790000 	   -0.1421120000
