25
tauto -439.869011015
C   	    3.4384400000 	    0.9260830000 	    0.8111350000
C   	    2.9707280000 	    0.4072950000 	   -0.5467000000
N   	    1.5975060000 	   -0.0475070000 	   -0.5434680000
N   	    1.3591640000 	   -1.2379340000 	   -0.0350020000
C   	    0.1442320000 	   -1.6360820000 	    0.1920150000
C   	   -1.1027060000 	   -0.8933980000 	   -0.0041560000
C   	   -2.3738740000 	   -1.6432520000 	    0.3536320000
N   	   -1.0681120000 	    0.3126250000 	   -0.4540510000
C   	   -2.2986010000 	    1.0665160000 	   -0.6203170000
C   	   -2.4933040000 	    2.0329280000 	    0.5468230000
H   	    4.4853190000 	    1.2465730000 	    0.7678020000
H   	    3.3478890000 	    0.1359290000 	    1.5634090000
H   	    2.8314280000 	    1.7787470000 	    1.1350160000
H   	    3.5933280000 	   -0.4347410000 	   -0.8661060000
H   	    3.0552280000 	    1.1897740000 	   -1.3093650000
H   	    0.8088240000 	    0.5967370000 	   -0.6207060000
H   	    0.0700570000 	   -2.6480220000 	    0.5821440000
H   	   -2.1425790000 	   -2.5992790000 	    0.8290110000
H   	   -2.9695210000 	   -1.8500390000 	   -0.5427340000
H   	   -2.9997980000 	   -1.0643950000 	    1.0403890000
H   	   -3.1857950000 	    0.4271390000 	   -0.7267890000
H   	   -2.2075220000 	    1.6398230000 	   -1.5504780000
H   	   -2.6227630000 	    1.4875080000 	    1.4885020000
H   	   -3.3756170000 	    2.6622540000 	    0.3895540000
H   	   -1.6178710000 	    2.6811690000 	    0.6534100000
