34
tauto -557.769081161
C   	    4.1701760000 	   -1.3697320000 	    0.5559940000
C   	    2.6864480000 	   -1.0475220000 	    0.4653900000
N   	    2.4540620000 	   -0.0482960000 	   -0.5770020000
N   	    1.0905230000 	    0.2076480000 	   -0.7701490000
C   	    0.5049260000 	    1.3303850000 	   -0.2492350000
C   	    1.4195750000 	    2.5067960000 	   -0.0097920000
C   	   -0.8468850000 	    1.4038860000 	   -0.0057740000
C   	   -1.4480190000 	    2.7270210000 	    0.4268610000
C   	   -1.7391070000 	    0.2409200000 	   -0.0978520000
C   	   -3.1400620000 	    0.4330400000 	    0.4659530000
N   	   -1.3328990000 	   -0.8711400000 	   -0.6168990000
C   	   -2.1790170000 	   -2.0488550000 	   -0.6700680000
C   	   -2.0040370000 	   -2.9163960000 	    0.5758380000
H   	    4.3618340000 	   -2.0944020000 	    1.3532050000
H   	    4.7473410000 	   -0.4628690000 	    0.7610670000
H   	    4.5393100000 	   -1.8030850000 	   -0.3816320000
H   	    2.3286080000 	   -0.6209050000 	    1.4095960000
H   	    2.1039390000 	   -1.9688990000 	    0.2890270000
H   	    2.8283140000 	   -0.3842770000 	   -1.4605230000
H   	    0.4438260000 	   -0.5855570000 	   -0.8555320000
H   	    2.4602310000 	    2.1931010000 	   -0.0915400000
H   	    1.2523380000 	    2.9431160000 	    0.9789710000
H   	    1.2347460000 	    3.2908930000 	   -0.7534090000
H   	   -0.8275920000 	    3.5713150000 	    0.1171060000
H   	   -1.5796790000 	    2.8103090000 	    1.5161510000
H   	   -2.4327340000 	    2.8908990000 	   -0.0244220000
H   	   -3.1100570000 	    1.0182870000 	    1.3887930000
H   	   -3.6328440000 	   -0.5140940000 	    0.6884760000
H   	   -3.7712000000 	    0.9814860000 	   -0.2439720000
H   	   -1.8715710000 	   -2.6266840000 	   -1.5500990000
H   	   -3.2419900000 	   -1.8118460000 	   -0.8183290000
H   	   -0.9443040000 	   -3.1502350000 	    0.7243280000
H   	   -2.5575980000 	   -3.8574920000 	    0.4847560000
H   	   -2.3567080000 	   -2.3938020000 	    1.4724410000
