12
tauto -356.704800959
N   	    2.3422040000 	   -0.5698390000 	   -0.0799710000
C   	    1.0141070000 	   -0.1497910000 	   -0.0055480000
N   	   -0.0416850000 	   -0.9327170000 	    0.0054810000
C   	   -1.1098730000 	   -0.0733710000 	   -0.0021710000
O   	   -2.3758640000 	   -0.5496100000 	    0.0093130000
C   	   -0.7185560000 	    1.2303820000 	   -0.0015920000
N   	    0.6787450000 	    1.1594570000 	    0.0033300000
H   	    1.3154140000 	    1.9239120000 	   -0.1515960000
H   	    2.3716000000 	   -1.5818830000 	   -0.1056600000
H   	    2.9068300000 	   -0.2346230000 	    0.6923940000
H   	   -2.2944000000 	   -1.5130440000 	    0.0196920000
H   	   -1.2614500000 	    2.1609020000 	    0.0246620000
