18
tauto -419.062281801
N   	   -3.3170660000 	   -0.2208630000 	   -0.0002650000
C   	   -2.0587200000 	   -0.0389620000 	   -0.0001040000
C   	   -1.2232260000 	    1.2437580000 	    0.0003080000
N   	   -1.1593160000 	   -1.0916570000 	   -0.0000830000
C   	    0.1649580000 	   -0.6640510000 	    0.0000870000
C   	    0.1984270000 	    0.7370010000 	    0.0000160000
C   	    1.4110100000 	    1.3986540000 	   -0.0001510000
C   	    2.5951330000 	    0.6529450000 	   -0.0001280000
C   	    2.5454830000 	   -0.7371120000 	   -0.0000010000
C   	    1.3270150000 	   -1.4200180000 	    0.0000820000
H   	   -3.7990470000 	    0.6764620000 	   -0.0002170000
H   	   -1.4607740000 	    1.8461130000 	    0.8848380000
H   	   -1.4611530000 	    1.8475450000 	   -0.8830880000
H   	   -1.4716000000 	   -2.0493870000 	    0.0006060000
H   	    1.4472420000 	    2.4859890000 	   -0.0002540000
H   	    3.5549680000 	    1.1615560000 	   -0.0002350000
H   	    3.4708670000 	   -1.3076530000 	    0.0000090000
H   	    1.2936910000 	   -2.5062750000 	    0.0001130000
