16
tauto -488.255020284
O   	   -1.1460180000 	    2.2416110000 	    0.0548250000
C   	   -0.9437520000 	    1.0609800000 	   -0.0300410000
N   	    0.3448960000 	    0.4991650000 	    0.0177810000
N   	    1.5132310000 	    1.2183310000 	    0.0834570000
C   	    2.4079150000 	    0.2695990000 	    0.0291040000
N   	    1.9415890000 	   -1.0206020000 	   -0.0636840000
C   	    0.6475040000 	   -0.8364120000 	   -0.0736730000
N   	   -0.3482180000 	   -1.7648150000 	   -0.1769570000
C   	   -1.6469700000 	   -1.3550020000 	    0.3436630000
C   	   -2.0138050000 	    0.0035790000 	   -0.2499640000
H   	    3.4664500000 	    0.4938860000 	    0.0616740000
H   	   -0.0399800000 	   -2.7057250000 	    0.0256710000
H   	   -1.6378580000 	   -1.2921040000 	    1.4429910000
H   	   -2.3901340000 	   -2.1016030000 	    0.0537780000
H   	   -2.9453510000 	    0.3856390000 	    0.1731090000
H   	   -2.1508180000 	   -0.0939990000 	   -1.3345270000
