16
tauto -325.80484633
C   	    2.5227630000 	   -0.3755440000 	    0.2086990000
N   	    1.5627770000 	    0.5990660000 	   -0.2851390000
C   	    0.2154370000 	    0.3654700000 	   -0.0960350000
C   	   -0.8202020000 	    1.2094340000 	    0.0125210000
C   	   -2.0799520000 	    0.3996880000 	    0.1912970000
C   	   -1.5556470000 	   -1.0193080000 	   -0.1039100000
O   	   -0.1178260000 	   -0.9553230000 	   -0.0507510000
H   	    3.5226450000 	   -0.0697360000 	   -0.1103370000
H   	    2.3045170000 	   -1.3491800000 	   -0.2327490000
H   	    2.5170900000 	   -0.4837010000 	    1.3034120000
H   	    1.8086190000 	    1.5564610000 	   -0.0766810000
H   	   -0.7569330000 	    2.2892010000 	    0.0360750000
H   	   -2.8833870000 	    0.6691730000 	   -0.5045920000
H   	   -2.4930950000 	    0.4816680000 	    1.2070220000
H   	   -1.8325750000 	   -1.3484140000 	   -1.1122210000
H   	   -1.8780980000 	   -1.7747880000 	    0.6166150000
