19
tauto -552.217767702
O   	   -3.2757350000 	    0.2141940000 	   -0.1566690000
C   	   -2.1179410000 	   -0.0816240000 	   -0.0034370000
C   	   -1.6826610000 	   -1.5013540000 	    0.3145460000
N   	   -0.3582340000 	   -1.8047090000 	   -0.1905550000
C   	    0.6582370000 	   -0.8761440000 	   -0.0744410000
C   	    0.3772460000 	    0.5013620000 	    0.0161620000
C   	    1.4281910000 	    1.4273500000 	    0.0861510000
C   	    2.7444580000 	    1.0128750000 	    0.0713510000
C   	    3.0201230000 	   -0.3574930000 	   -0.0243750000
C   	    2.0018760000 	   -1.2894410000 	   -0.0953550000
C   	   -1.0106950000 	    0.9941780000 	   -0.0164000000
O   	   -1.3223460000 	    2.1655490000 	   -0.0455310000
H   	   -2.4168600000 	   -2.1899510000 	   -0.1107230000
H   	   -1.7342440000 	   -1.5912610000 	    1.4152440000
H   	   -0.0708630000 	   -2.7644030000 	   -0.0624670000
H   	    1.1639920000 	    2.4795840000 	    0.1475520000
H   	    3.5538700000 	    1.7341320000 	    0.1271730000
H   	    4.0516830000 	   -0.7010730000 	   -0.0400720000
H   	    2.2317040000 	   -2.3502780000 	   -0.1704340000
