13
tauto -503.047771141
O   	   -1.3355060000 	   -2.0957790000 	    0.0000170000
C   	   -1.0241800000 	   -0.9360300000 	   -0.0000750000
N   	    0.3010000000 	   -0.4539880000 	   -0.0000480000
N   	    1.4094490000 	   -1.2310350000 	   -0.0000130000
N   	    2.3975230000 	   -0.4199420000 	    0.0001090000
N   	    2.0054550000 	    0.8800200000 	   -0.0000550000
C   	    0.6937520000 	    0.8517510000 	   -0.0000170000
C   	   -0.3073610000 	    1.8807070000 	   -0.0000100000
C   	   -1.5863670000 	    1.4662920000 	    0.0000370000
N   	   -1.9172420000 	    0.1221540000 	    0.0000260000
H   	   -0.0265760000 	    2.9246370000 	   -0.0000260000
H   	   -2.4306940000 	    2.1460090000 	    0.0000880000
H   	   -2.8870330000 	   -0.1611980000 	    0.0000540000
