11
tauto -376.583707712
N   	    2.3670090000 	   -0.4114610000 	   -0.0011440000
C   	    1.1416280000 	   -0.1256940000 	    0.0002120000
N   	    0.0026310000 	   -0.9429010000 	    0.0021710000
O   	    0.7178200000 	    1.1624970000 	    0.0000060000
C   	   -0.7025080000 	    1.2230250000 	    0.0001480000
C   	   -1.1694540000 	   -0.2237310000 	    0.0002490000
O   	   -2.2977720000 	   -0.6484790000 	   -0.0011220000
H   	    2.5152620000 	   -1.4170000000 	   -0.0003460000
H   	    0.0308790000 	   -1.9511600000 	   -0.0017460000
H   	   -1.0561660000 	    1.7472780000 	   -0.8925050000
H   	   -1.0558390000 	    1.7476700000 	    0.8926900000
