25
tauto -352.499233008
C   	   -0.8195760000 	    2.0429460000 	    0.6774560000
C   	   -0.8715990000 	    0.8505200000 	   -0.2820730000
C   	   -2.2373560000 	    0.1283870000 	   -0.2183420000
C   	   -1.9150770000 	   -1.3592540000 	   -0.3780160000
C   	   -0.5950110000 	   -1.5105460000 	    0.3869530000
C   	    0.1566230000 	   -0.2404170000 	    0.0308490000
C   	    1.4844060000 	   -0.1080340000 	   -0.0642700000
C   	    2.4553060000 	   -1.2061110000 	    0.2922160000
C   	    2.1541350000 	    1.1575530000 	   -0.5423630000
H   	   -1.6241390000 	    2.7544830000 	    0.4551930000
H   	    0.1320440000 	    2.5801480000 	    0.6184630000
H   	   -0.9469780000 	    1.7036540000 	    1.7124550000
H   	   -0.7063920000 	    1.2185580000 	   -1.3052580000
H   	   -2.9458170000 	    0.5020500000 	   -0.9652940000
H   	   -2.6907420000 	    0.2967660000 	    0.7684600000
H   	   -1.7536270000 	   -1.5991810000 	   -1.4368280000
H   	   -2.7091670000 	   -2.0148420000 	   -0.0054920000
H   	   -0.0556410000 	   -2.4251660000 	    0.1240160000
H   	   -0.7988390000 	   -1.5507360000 	    1.4677730000
H   	    1.9706700000 	   -2.0843110000 	    0.7247710000
H   	    3.1906480000 	   -0.8411600000 	    1.0215350000
H   	    3.0240950000 	   -1.5278300000 	   -0.5906950000
H   	    1.4654080000 	    1.8370150000 	   -1.0516800000
H   	    2.9632990000 	    0.9145780000 	   -1.2429800000
H   	    2.6140740000 	    1.7057110000 	    0.2911040000
