37
tauto -921.758562758
O   	    0.0919230000 	    2.6217140000 	    0.0272870000
C   	    0.0089980000 	    1.2658920000 	    0.0168980000
C   	   -1.2238440000 	    0.5870050000 	    0.0065560000
C   	   -2.4734820000 	    1.2570930000 	   -0.0174680000
C   	   -3.6707680000 	    0.5746590000 	   -0.0140140000
C   	   -4.9429410000 	    1.2540600000 	   -0.0402060000
C   	   -6.1050840000 	    0.5590630000 	   -0.0336770000
C   	   -6.0971740000 	   -0.8806550000 	   -0.0018220000
C   	   -4.9280510000 	   -1.5632840000 	    0.0200390000
C   	   -3.6620970000 	   -0.8703110000 	    0.0129250000
C   	   -2.4583460000 	   -1.5382960000 	    0.0237560000
C   	   -1.2130910000 	   -0.8580400000 	    0.0157460000
C   	   -0.0016880000 	   -1.5496880000 	    0.0134290000
C   	    1.2191460000 	   -0.8684290000 	    0.0031020000
C   	    2.4620450000 	   -1.5481450000 	   -0.0068180000
C   	    3.6637640000 	   -0.8714810000 	   -0.0094140000
C   	    4.9318660000 	   -1.5590960000 	   -0.0205780000
C   	    6.0987970000 	   -0.8709230000 	   -0.0206100000
C   	    6.1030680000 	    0.5681590000 	   -0.0094260000
C   	    4.9372210000 	    1.2580740000 	    0.0008040000
C   	    3.6682860000 	    0.5736030000 	    0.0007660000
C   	    2.4696450000 	    1.2568830000 	    0.0105790000
C   	    1.2326480000 	    0.5715420000 	    0.0088530000
H   	   -0.7852170000 	    3.0018880000 	    0.1532090000
H   	   -2.5255950000 	    2.3453070000 	   -0.0592850000
H   	   -4.9458190000 	    2.3421550000 	   -0.0643780000
H   	   -7.0572040000 	    1.0826920000 	   -0.0525160000
H   	   -7.0439870000 	   -1.4142230000 	    0.0035730000
H   	   -4.9172350000 	   -2.6509620000 	    0.0428910000
H   	   -2.4500650000 	   -2.6271620000 	    0.0359960000
H   	   -0.0081270000 	   -2.6376100000 	    0.0180600000
H   	    2.4589030000 	   -2.6370770000 	   -0.0127990000
H   	    4.9263290000 	   -2.6471240000 	   -0.0290700000
H   	    7.0471680000 	   -1.4020940000 	   -0.0291710000
H   	    7.0536370000 	    1.0950140000 	   -0.0094990000
H   	    4.9326170000 	    2.3460990000 	    0.0090360000
H   	    2.4656970000 	    2.3432700000 	    0.0191400000
