10
tauto -301.352814663
O   	   -2.0396450000 	   -0.1266760000 	   -0.0002110000
C   	   -0.6887110000 	   -0.0147150000 	   -0.0000170000
C   	    0.1005220000 	    1.1067560000 	   -0.0000040000
N   	    1.3934600000 	    0.6100080000 	   -0.0001240000
H   	    2.2399010000 	    1.1553660000 	    0.0000440000
C   	    1.3027370000 	   -0.7394790000 	    0.0002030000
N   	    0.0567780000 	   -1.1529560000 	   -0.0000830000
H   	   -2.4190520000 	    0.7599480000 	    0.0019240000
H   	   -0.1173020000 	    2.1641920000 	   -0.0002350000
H   	    2.1746650000 	   -1.3808340000 	    0.0003110000
