12
tauto -410.828902481
N   	   -2.3836980000 	   -0.8301070000 	   -0.0001760000
C   	   -1.2137360000 	   -0.3351190000 	   -0.0000280000
N   	    0.0113750000 	   -0.9964650000 	    0.0000950000
N   	   -1.0665120000 	    1.0458940000 	   -0.0000250000
N   	    0.0769190000 	    1.7376910000 	    0.0000280000
C   	    1.1830330000 	    1.0847920000 	    0.0000080000
C   	    1.2608940000 	   -0.3890080000 	    0.0008730000
O   	    2.2893690000 	   -1.0305170000 	   -0.0004810000
H   	   -2.3687830000 	   -1.8466230000 	   -0.0002620000
H   	    0.0137730000 	   -2.0083850000 	   -0.0001350000
H   	   -1.9171530000 	    1.5883850000 	    0.0000730000
H   	    2.1094800000 	    1.6476820000 	   -0.0003960000
