12
tauto -373.690343696
C   	    2.0418240000 	    0.0617410000 	    0.0002200000
N   	    1.2444010000 	   -1.0746170000 	   -0.0002540000
H   	    1.5543990000 	   -2.0307710000 	    0.0016270000
C   	    1.2540180000 	    1.1629680000 	    0.0001290000
N   	   -0.0638520000 	    0.6949750000 	   -0.0001360000
C   	   -0.0638460000 	   -0.6686840000 	   -0.0000860000
N   	   -1.2686350000 	   -1.1827320000 	    0.0000110000
N   	   -2.1074600000 	   -0.0922210000 	   -0.0000140000
C   	   -1.4020490000 	    1.0097040000 	   -0.0000960000
H   	    3.1195450000 	   -0.0077530000 	    0.0003110000
H   	    1.5088110000 	    2.2105100000 	    0.0000230000
H   	   -1.7936110000 	    2.0158100000 	   -0.0002100000
