23
tauto -442.522030789
C   	   -1.8721740000 	   -0.9290480000 	   -1.2594720000
C   	   -1.5327400000 	   -0.1220870000 	    0.0000060000
C   	   -2.3419720000 	    1.1750560000 	   -0.0000110000
C   	   -1.8718130000 	   -0.9288050000 	    1.2597480000
N   	   -0.0914590000 	    0.1827770000 	   -0.0001990000
C   	    0.5063440000 	    1.4117270000 	   -0.0001990000
C   	    1.8721650000 	    1.2539690000 	   -0.0000690000
C   	    0.8997520000 	   -0.7827190000 	    0.0000810000
C   	    2.1143740000 	   -0.1405220000 	    0.0000180000
O   	    3.3677730000 	   -0.6846140000 	    0.0002710000
H   	   -2.9440990000 	   -1.1540720000 	   -1.2887760000
H   	   -1.3267470000 	   -1.8779390000 	   -1.2843280000
H   	   -1.6090640000 	   -0.3622610000 	   -2.1585710000
H   	   -3.4086450000 	    0.9300970000 	    0.0000760000
H   	   -2.1348330000 	    1.7772780000 	   -0.8908010000
H   	   -2.1347220000 	    1.7773300000 	    0.8907230000
H   	   -2.9437210000 	   -1.1538460000 	    1.2894360000
H   	   -1.6084260000 	   -0.3618000000 	    2.1586290000
H   	   -1.3262940000 	   -1.8776430000 	    1.2846140000
H   	   -0.0748050000 	    2.3217750000 	   -0.0000760000
H   	    2.6177360000 	    2.0369410000 	    0.0000220000
H   	    0.6656060000 	   -1.8387400000 	   -0.0004280000
H   	    3.2824310000 	   -1.6450790000 	   -0.0019050000
