19
tauto -460.983572041
O   	   -1.6487020000 	   -2.1011760000 	   -0.0000500000
C   	   -1.3572590000 	   -0.7704850000 	   -0.0000350000
C   	   -2.3194160000 	    0.2066510000 	   -0.0000180000
C   	   -1.9430540000 	    1.5715900000 	    0.0000220000
C   	   -0.6253370000 	    1.9353440000 	   -0.0000020000
C   	    0.3907940000 	    0.9391820000 	   -0.0000170000
C   	    1.7713150000 	    1.2742220000 	    0.0000020000
C   	    2.7325460000 	    0.2986360000 	    0.0000170000
C   	    2.3640340000 	   -1.0679800000 	    0.0000130000
C   	    1.0416010000 	   -1.4262360000 	   -0.0000050000
C   	    0.0299580000 	   -0.4316750000 	   -0.0000240000
H   	   -2.6082890000 	   -2.2077670000 	    0.0006190000
H   	   -3.3737990000 	   -0.0650810000 	   -0.0000580000
H   	   -2.7209820000 	    2.3306160000 	    0.0000620000
H   	   -0.3366910000 	    2.9836370000 	    0.0000150000
H   	    2.0510380000 	    2.3257530000 	    0.0000050000
H   	    3.7850810000 	    0.5708800000 	    0.0000380000
H   	    3.1357210000 	   -1.8332600000 	    0.0000280000
H   	    0.7464480000 	   -2.4708600000 	   -0.0000210000
