32
tauto -560.411606406
C   	    1.0139010000 	    2.0619000000 	   -0.6860290000
C   	    0.5317670000 	    0.7827010000 	   -0.0340950000
C   	   -0.9227000000 	    0.7819730000 	    0.2778780000
C   	   -1.4175610000 	    1.9037510000 	    1.1707260000
C   	   -1.8052940000 	   -0.0841120000 	   -0.2712850000
C   	   -1.4330250000 	   -1.1709710000 	   -1.2427710000
N   	   -3.1781000000 	    0.0545250000 	   -0.0468770000
C   	   -4.0610620000 	   -1.0967530000 	   -0.0989160000
C   	    1.3480120000 	   -0.2615990000 	    0.2650740000
C   	    0.8626820000 	   -1.4890480000 	    1.0030580000
C   	    2.7936630000 	   -0.2406470000 	   -0.1151460000
C   	    3.6962390000 	   -1.3272020000 	    0.4486490000
O   	    3.2769470000 	    0.6004310000 	   -0.8563000000
H   	    0.2300730000 	    2.8240240000 	   -0.6509880000
H   	    1.2647130000 	    1.8778690000 	   -1.7352740000
H   	    1.9249920000 	    2.4531040000 	   -0.2272910000
H   	   -0.5899340000 	    2.5229710000 	    1.5273650000
H   	   -1.9199480000 	    1.5110800000 	    2.0666250000
H   	   -2.1289890000 	    2.5679860000 	    0.6599210000
H   	   -0.3882350000 	   -1.0846690000 	   -1.5426180000
H   	   -2.0567590000 	   -1.1042430000 	   -2.1414310000
H   	   -1.5822780000 	   -2.1681280000 	   -0.8094360000
H   	   -3.3947660000 	    0.6680330000 	    0.7250880000
H   	   -4.0617090000 	   -1.5398470000 	   -1.0985640000
H   	   -5.0805290000 	   -0.7598990000 	    0.1075680000
H   	   -3.8052960000 	   -1.8863130000 	    0.6254700000
H   	   -0.1412420000 	   -1.3314970000 	    1.4017330000
H   	    1.5226220000 	   -1.7389460000 	    1.8410880000
H   	    0.8259470000 	   -2.3741040000 	    0.3529420000
H   	    3.7452910000 	   -1.2662780000 	    1.5422000000
H   	    4.6964070000 	   -1.1876930000 	    0.0353070000
H   	    3.3310450000 	   -2.3285300000 	    0.1959630000
