19
tauto -552.255003545
O   	   -0.9992630000 	   -2.6890940000 	   -0.0000670000
C   	   -0.9599110000 	   -1.4756340000 	   -0.0000140000
C   	   -2.2674110000 	   -0.6986920000 	    0.0000420000
N   	   -2.1273710000 	    0.7419450000 	    0.0000230000
C   	    0.3119670000 	   -0.7121530000 	    0.0000100000
C   	    1.5246490000 	   -1.4028710000 	    0.0000300000
C   	    2.7193110000 	   -0.6974230000 	    0.0000240000
C   	    2.7056580000 	    0.6986760000 	   -0.0000030000
C   	    1.5007080000 	    1.3895420000 	   -0.0000150000
C   	    0.2992470000 	    0.6863090000 	   -0.0000100000
C   	   -0.9772710000 	    1.4703890000 	   -0.0000090000
O   	   -0.9875320000 	    2.6912950000 	   -0.0000250000
H   	   -2.8298020000 	   -1.0330450000 	    0.8812080000
H   	   -2.8298950000 	   -1.0330560000 	   -0.8810570000
H   	   -2.9676450000 	    1.3030990000 	    0.0000660000
H   	    1.5020790000 	   -2.4888620000 	    0.0000380000
H   	    3.6657580000 	   -1.2313560000 	    0.0000380000
H   	    3.6431640000 	    1.2485760000 	   -0.0000110000
H   	    1.4606160000 	    2.4745600000 	   -0.0000340000
