12
tauto -414.643941692
O   	    1.9426960000 	   -1.0572200000 	   -0.0000560000
C   	    0.6669910000 	   -0.6444940000 	   -0.0000180000
C   	   -0.4353810000 	   -1.4341590000 	    0.0000640000
C   	   -1.7300580000 	   -0.8235060000 	    0.0001100000
N   	   -1.9233270000 	    0.4568510000 	    0.0001070000
N   	   -0.8080090000 	    1.2121090000 	   -0.0000580000
C   	    0.5178760000 	    0.8225640000 	   -0.0000850000
O   	    1.4308730000 	    1.6272630000 	   -0.0000720000
H   	    1.9652080000 	   -2.0239670000 	    0.0001100000
H   	   -0.3537570000 	   -2.5190600000 	    0.0000790000
H   	   -2.6282120000 	   -1.4335350000 	    0.0001410000
H   	   -0.9690120000 	    2.2110660000 	   -0.0000680000
