14
tauto -490.813136369
O   	    1.6134420000 	    2.0881300000 	    0.0000670000
C   	    1.2039840000 	    0.9385580000 	   -0.0002140000
C   	   -0.2250590000 	    0.5807200000 	   -0.0001580000
C   	   -1.3958850000 	    1.2734120000 	   -0.0000320000
O   	   -2.4270860000 	    0.4326660000 	    0.0002150000
N   	   -1.9804630000 	   -0.8813560000 	   -0.0000460000
C   	   -0.6757640000 	   -0.7678540000 	   -0.0000970000
N   	    0.2204090000 	   -1.8058680000 	   -0.0001120000
C   	    1.5648360000 	   -1.5109890000 	    0.0001030000
C   	    2.0646090000 	   -0.2545190000 	    0.0001000000
H   	   -1.6331100000 	    2.3279770000 	    0.0000080000
H   	   -0.1097000000 	   -2.7579560000 	    0.0001260000
H   	    2.2144410000 	   -2.3808010000 	    0.0002430000
H   	    3.1375720000 	   -0.1009870000 	    0.0002610000
