12
tauto -248.377836763
C   	   -2.2360460000 	   -0.4654680000 	   -0.2086750000
C   	   -1.1915520000 	    0.5966640000 	    0.1446850000
C   	    0.1594740000 	   -0.0042460000 	    0.3816800000
N   	    1.1504780000 	    0.3451940000 	   -0.3337790000
O   	    2.3030880000 	   -0.3364230000 	    0.0417380000
H   	   -3.2222480000 	   -0.0113470000 	   -0.3471660000
H   	   -2.3213350000 	   -1.2171430000 	    0.5844250000
H   	   -1.9662050000 	   -0.9841950000 	   -1.1343710000
H   	   -1.5065780000 	    1.1315420000 	    1.0505800000
H   	   -1.1040910000 	    1.3374560000 	   -0.6566710000
H   	    0.2852920000 	   -0.7578360000 	    1.1655970000
H   	    2.9658580000 	    0.0148480000 	   -0.5659830000
