17
tauto -438.91913946
O   	   -3.2709590000 	   -0.1470760000 	    0.0000600000
C   	   -1.9369170000 	    0.0624110000 	   -0.0000990000
C   	   -1.1799200000 	    1.1978980000 	   -0.0000770000
C   	    0.1928520000 	    0.7568880000 	    0.0001160000
C   	    1.4283240000 	    1.4166730000 	   -0.0000300000
C   	    2.5944030000 	    0.6675330000 	    0.0000060000
C   	    2.5562550000 	   -0.7362220000 	    0.0000720000
C   	    1.3482010000 	   -1.4168630000 	    0.0000430000
C   	    0.1813110000 	   -0.6561530000 	    0.0000990000
N   	   -1.1449210000 	   -1.0546930000 	   -0.0005510000
H   	   -1.4976060000 	   -1.9974180000 	    0.0016880000
H   	   -3.7098000000 	    0.7123740000 	    0.0008280000
H   	   -1.5446730000 	    2.2166190000 	    0.0002220000
H   	    1.4702580000 	    2.5033870000 	   -0.0001250000
H   	    3.5566890000 	    1.1731650000 	   -0.0000490000
H   	    3.4866860000 	   -1.2979440000 	    0.0000810000
H   	    1.3135150000 	   -2.5037230000 	   -0.0000520000
