16
tauto -458.762401382
O   	   -2.4333080000 	   -1.3745170000 	   -0.0000160000
C   	   -1.6003650000 	   -0.3028500000 	   -0.0000050000
C   	   -1.8644920000 	    1.0233880000 	   -0.0000230000
O   	   -0.7063100000 	    1.7684280000 	    0.0000050000
C   	    0.3164820000 	    0.8747330000 	    0.0000000000
C   	   -0.1637930000 	   -0.4363760000 	   -0.0000100000
C   	    0.7358020000 	   -1.5072300000 	   -0.0000090000
C   	    2.0902030000 	   -1.2181810000 	    0.0000000000
C   	    2.5512460000 	    0.1114670000 	    0.0000070000
C   	    1.6725840000 	    1.1835830000 	    0.0000090000
H   	   -3.3476690000 	   -1.0652540000 	    0.0002760000
H   	   -2.7857110000 	    1.5881250000 	   -0.0000300000
H   	    0.3756530000 	   -2.5320810000 	   -0.0000110000
H   	    2.8135150000 	   -2.0290590000 	    0.0000040000
H   	    3.6212720000 	    0.3017830000 	    0.0000130000
H   	    2.0138860000 	    2.2139900000 	    0.0000160000
