13
tauto -398.61531733
O   	    2.3936690000 	   -1.1300150000 	    0.0000380000
C   	    1.3908610000 	   -0.2292540000 	   -0.0000030000
C   	    1.3814390000 	    1.1570690000 	    0.0000700000
C   	    0.0213420000 	    1.5405970000 	   -0.0000850000
C   	   -0.7453790000 	    0.3922240000 	   -0.0000060000
C   	   -2.1724180000 	    0.1718140000 	    0.0000430000
O   	   -2.6778350000 	   -0.9380920000 	    0.0000570000
N   	    0.1237610000 	   -0.6847480000 	   -0.0001350000
H   	   -0.1742240000 	   -1.6492610000 	   -0.0002130000
H   	    3.2325970000 	   -0.6532270000 	    0.0001250000
H   	    2.2501370000 	    1.8022900000 	    0.0001690000
H   	   -0.3643550000 	    2.5526200000 	   -0.0001080000
H   	   -2.7922170000 	    1.0909730000 	    0.0000910000
