27
tauto -465.800160758
C   	    1.0755490000 	   -1.6561700000 	    1.1906850000
C   	    1.0530810000 	   -0.9714720000 	   -0.1848630000
C   	    2.4761340000 	   -0.6183170000 	   -0.6552440000
C   	    2.7743220000 	    0.7238860000 	    0.0199890000
C   	    1.4308810000 	    1.4636850000 	   -0.0445390000
C   	    0.3587270000 	    0.3844070000 	   -0.1074040000
C   	   -0.9511290000 	    0.6905640000 	   -0.0556830000
C   	   -1.3807350000 	    2.1306570000 	    0.1216960000
C   	   -2.0886640000 	   -0.2893850000 	   -0.0800270000
C   	   -1.9448640000 	   -1.6742410000 	   -0.6840100000
O   	   -3.1756780000 	    0.0500650000 	    0.3537060000
H   	    1.5830710000 	   -2.6256700000 	    1.1294700000
H   	    0.0644550000 	   -1.8198220000 	    1.5777330000
H   	    1.6071010000 	   -1.0437410000 	    1.9278620000
H   	    0.5726690000 	   -1.6397000000 	   -0.9033500000
H   	    2.4832070000 	   -0.4921880000 	   -1.7455300000
H   	    3.2030230000 	   -1.3999280000 	   -0.4082130000
H   	    3.5846390000 	    1.2746090000 	   -0.4671500000
H   	    3.0730640000 	    0.5666930000 	    1.0630990000
H   	    1.3711440000 	    2.0782920000 	   -0.9546120000
H   	    1.2771270000 	    2.1492190000 	    0.7967450000
H   	   -0.8655650000 	    2.7880430000 	   -0.5877660000
H   	   -1.1487640000 	    2.4950420000 	    1.1304530000
H   	   -2.4575770000 	    2.2300860000 	   -0.0199200000
H   	   -1.4571900000 	   -1.6344320000 	   -1.6631150000
H   	   -2.9475670000 	   -2.0929760000 	   -0.7886820000
H   	   -1.3572260000 	   -2.3357300000 	   -0.0402670000
