16
tauto -458.772861231
O   	   -3.2144820000 	   -0.2182500000 	   -0.0000440000
C   	   -1.9054050000 	    0.0569730000 	   -0.0000130000
C   	   -1.1889880000 	    1.2068110000 	    0.0000280000
C   	    0.1941090000 	    0.7814920000 	   -0.0000010000
C   	    1.4399330000 	    1.4146530000 	   -0.0000090000
C   	    2.5846650000 	    0.6272740000 	   -0.0000130000
C   	    2.5103600000 	   -0.7726170000 	   -0.0000040000
C   	    1.2818630000 	   -1.4241520000 	    0.0000150000
C   	    0.1578750000 	   -0.6174500000 	    0.0000120000
O   	   -1.1435760000 	   -1.0580100000 	    0.0000090000
H   	   -3.6996440000 	    0.6164050000 	    0.0001840000
H   	   -1.5794080000 	    2.2151720000 	    0.0000230000
H   	    1.5128830000 	    2.4990920000 	   -0.0000060000
H   	    3.5604760000 	    1.1059810000 	   -0.0000170000
H   	    3.4256130000 	   -1.3580620000 	   -0.0000060000
H   	    1.1980700000 	   -2.5064140000 	    0.0000200000
