16
tauto -458.742742185
O   	   -2.5332800000 	   -1.2173320000 	    0.0000060000
C   	   -1.5293680000 	   -0.3254020000 	   -0.0000030000
C   	   -0.1606210000 	   -0.4183110000 	   -0.0000310000
C   	    0.7734840000 	   -1.5049720000 	   -0.0000110000
C   	    2.0994550000 	   -1.2175730000 	    0.0000170000
C   	    2.5705930000 	    0.1494430000 	    0.0000170000
C   	    1.7195520000 	    1.2057920000 	   -0.0000100000
C   	    0.3039890000 	    0.9525730000 	   -0.0000320000
C   	   -0.8083110000 	    1.7410130000 	    0.0000120000
O   	   -1.9250890000 	    0.9440320000 	    0.0000170000
H   	   -2.1500690000 	   -2.1034600000 	    0.0000400000
H   	    0.4307960000 	   -2.5383120000 	   -0.0000410000
H   	    2.8310380000 	   -2.0207940000 	    0.0000270000
H   	    3.6436810000 	    0.3236800000 	    0.0000490000
H   	    2.0922770000 	    2.2266710000 	   -0.0000120000
H   	   -0.9934150000 	    2.8032280000 	    0.0000100000
