14
tauto -324.601966674
C   	   -2.4267480000 	   -0.5212070000 	    0.0004620000
N   	   -1.0536050000 	   -0.0749570000 	   -0.0005390000
C   	   -0.6302040000 	    1.2204670000 	   -0.0001230000
C   	    0.7444180000 	    1.2435170000 	    0.0000610000
C   	    0.0463780000 	   -0.9077220000 	   -0.0004530000
C   	    1.1666060000 	   -0.1100100000 	    0.0000490000
O   	    2.4809080000 	   -0.4819730000 	    0.0002200000
H   	   -3.0826930000 	    0.3523360000 	   -0.0005440000
H   	   -2.6441470000 	   -1.1184230000 	    0.8925800000
H   	   -2.6445750000 	   -1.1207450000 	   -0.8899840000
H   	   -1.3467890000 	    2.0316130000 	   -0.0000370000
H   	    1.3842220000 	    2.1148650000 	    0.0001860000
H   	   -0.0654830000 	   -1.9841560000 	   -0.0009090000
H   	    2.5247340000 	   -1.4452810000 	    0.0007390000
