11
tauto -285.300880461
O   	    2.0856230000 	    0.1044820000 	   -0.0001680000
C   	    0.7222170000 	    0.0196680000 	   -0.0000320000
C   	   -0.0703830000 	   -1.1028190000 	   -0.0001600000
N   	   -1.3798220000 	   -0.6682080000 	    0.0000910000
H   	   -2.1849480000 	   -1.2703690000 	    0.0003050000
C   	   -1.4146170000 	    0.6944950000 	   -0.0000350000
C   	   -0.1226280000 	    1.1610120000 	    0.0000450000
H   	    2.4467850000 	   -0.7896250000 	    0.0017300000
H   	    0.1792940000 	   -2.1547700000 	   -0.0003720000
H   	   -2.3543400000 	    1.2292520000 	    0.0000190000
H   	    0.1994500000 	    2.1929770000 	    0.0001230000
