10
tauto -305.151184295
O   	    2.0644920000 	    0.1434000000 	   -0.0001100000
C   	    0.7109430000 	    0.0231130000 	   -0.0000420000
C   	   -0.0706610000 	   -1.0886840000 	   -0.0002030000
O   	   -1.3869420000 	   -0.7233910000 	    0.0001520000
C   	   -1.4211970000 	    0.6259050000 	   -0.0000190000
C   	   -0.1716070000 	    1.1501740000 	   -0.0000010000
H   	    2.4561050000 	   -0.7385110000 	    0.0014580000
H   	    0.1331590000 	   -2.1490640000 	   -0.0003040000
H   	   -2.4054850000 	    1.0712150000 	    0.0000460000
H   	    0.1109490000 	    2.1932420000 	    0.0000620000
