15
tauto -399.820460141
C   	    2.1350370000 	   -1.3699890000 	   -0.0000890000
C   	    0.9053240000 	   -0.5320860000 	    0.0002410000
C   	    0.8066450000 	    0.8528610000 	    0.0000390000
O   	    1.5283160000 	    1.8199460000 	    0.0000090000
O   	   -0.7024630000 	    1.0732480000 	   -0.0000850000
C   	   -1.2875290000 	   -0.0885250000 	   -0.0001270000
C   	   -2.7648540000 	   -0.2349760000 	    0.0000140000
N   	   -0.3934600000 	   -1.0518580000 	    0.0001100000
H   	   -0.6197590000 	   -2.0355630000 	   -0.0002470000
H   	    2.9942350000 	   -0.6936710000 	   -0.0006420000
H   	    2.2208480000 	   -2.0105400000 	   -0.8885510000
H   	    2.2216840000 	   -2.0101180000 	    0.8885930000
H   	   -3.1930250000 	    0.2467150000 	    0.8844170000
H   	   -3.0510160000 	   -1.2901520000 	   -0.0001440000
H   	   -3.1933010000 	    0.2470690000 	   -0.8840580000
