15
tauto -399.786780973
C   	   -2.5641520000 	    0.0805590000 	    0.0001690000
C   	   -1.1111170000 	   -0.2575120000 	   -0.0000220000
N   	   -0.6883600000 	   -1.4960570000 	   -0.0006960000
O   	    0.6835480000 	   -1.4391770000 	    0.0005290000
C   	    1.0906170000 	   -0.1497380000 	   -0.0000730000
C   	    2.5578610000 	    0.1118870000 	    0.0002730000
C   	   -0.0096030000 	    0.6440880000 	   -0.0001040000
O   	   -0.1482460000 	    1.9984590000 	   -0.0000910000
H   	   -3.1577890000 	   -0.8364150000 	   -0.0022070000
H   	   -2.8226170000 	    0.6752840000 	   -0.8817580000
H   	   -2.8234790000 	    0.6711270000 	    0.8846540000
H   	    3.0941700000 	   -0.8400010000 	   -0.0062620000
H   	    2.8695270000 	    0.6679580000 	    0.8916410000
H   	    2.8677910000 	    0.6790850000 	   -0.8846840000
H   	    0.7268690000 	    2.4053980000 	   -0.0014730000
