33
tauto -802.65652668
C   	   -1.5028340000 	    2.7219240000 	   -0.1013340000
N   	   -0.6851800000 	    1.5275100000 	   -0.0021390000
C   	   -1.0560790000 	    0.1971400000 	    0.0054860000
C   	   -2.4467070000 	   -0.2909350000 	   -0.0111250000
C   	   -3.4921750000 	    0.3664130000 	    0.6443290000
C   	   -4.7821260000 	   -0.1555350000 	    0.6147020000
C   	   -5.0409110000 	   -1.3445100000 	   -0.0583000000
C   	   -4.0000240000 	   -2.0153030000 	   -0.6973370000
C   	   -2.7141170000 	   -1.4930530000 	   -0.6757870000
N   	   -0.0069300000 	   -0.5874260000 	   -0.0001800000
C   	    1.1023540000 	    0.2285870000 	   -0.0242740000
C   	    2.4765490000 	   -0.2885130000 	    0.0001770000
C   	    3.5495150000 	    0.4530620000 	   -0.5094150000
C   	    4.8496240000 	   -0.0413750000 	   -0.4456110000
C   	    5.0955510000 	   -1.2903860000 	    0.1129790000
C   	    4.0296980000 	   -2.0458700000 	    0.6000550000
C   	    2.7339490000 	   -1.5509160000 	    0.5473890000
C   	    0.6817540000 	    1.5344150000 	   -0.0125890000
O   	    1.3233680000 	    2.7269660000 	    0.0076680000
H   	   -2.4074400000 	    2.4975810000 	   -0.6693420000
H   	   -0.9307780000 	    3.4925880000 	   -0.6210540000
H   	   -1.7792820000 	    3.0995000000 	    0.8884130000
H   	   -3.2990110000 	    1.2749820000 	    1.2086770000
H   	   -5.5845990000 	    0.3645310000 	    1.1317680000
H   	   -6.0482170000 	   -1.7524380000 	   -0.0793020000
H   	   -4.1928270000 	   -2.9497120000 	   -1.2182400000
H   	   -1.8921090000 	   -2.0072090000 	   -1.1651970000
H   	    3.3656060000 	    1.4016950000 	   -1.0123430000
H   	    5.6695430000 	    0.5467770000 	   -0.8507880000
H   	    6.1092930000 	   -1.6796530000 	    0.1601180000
H   	    4.2123220000 	   -3.0280470000 	    1.0293750000
H   	    1.8972280000 	   -2.1317590000 	    0.9252200000
H   	    2.2339700000 	    2.5639680000 	    0.2915110000
