28
tauto -391.806300138
C   	   -0.8922850000 	    1.8198610000 	    1.1791210000
C   	   -0.4838410000 	    1.1116450000 	   -0.1209520000
C   	   -1.7084790000 	    0.6896220000 	   -0.9575660000
C   	   -2.4695040000 	   -0.4961460000 	   -0.3634390000
C   	   -1.5272720000 	   -1.6792270000 	   -0.1481560000
C   	   -0.3303700000 	   -1.2758600000 	    0.7230390000
C   	    0.4189750000 	   -0.0871960000 	    0.1513890000
C   	    1.7416860000 	   -0.0780530000 	   -0.0834260000
C   	    2.6617430000 	   -1.2592700000 	    0.1271880000
C   	    2.5066600000 	    1.1267630000 	   -0.5884300000
H   	   -1.5143830000 	    2.6965430000 	    0.9620580000
H   	   -0.0061760000 	    2.1577360000 	    1.7279560000
H   	   -1.4645360000 	    1.1668280000 	    1.8472810000
H   	    0.0602050000 	    1.8428260000 	   -0.7259340000
H   	   -1.3619170000 	    0.4129460000 	   -1.9631810000
H   	   -2.3771210000 	    1.5520420000 	   -1.0798410000
H   	   -3.2963040000 	   -0.7792540000 	   -1.0263250000
H   	   -2.9237270000 	   -0.2119320000 	    0.5961980000
H   	   -1.1590290000 	   -2.0331150000 	   -1.1215760000
H   	   -2.0602190000 	   -2.5181920000 	    0.3161670000
H   	    0.3252010000 	   -2.1361460000 	    0.8739060000
H   	   -0.7069000000 	   -1.0080540000 	    1.7221950000
H   	    2.1474560000 	   -2.2099250000 	    0.2759580000
H   	    3.3154510000 	   -1.0908490000 	    0.9934970000
H   	    3.3216420000 	   -1.3747290000 	   -0.7424040000
H   	    1.9793370000 	    2.0746420000 	   -0.4658320000
H   	    2.7578300000 	    1.0133170000 	   -1.6517730000
H   	    3.4593070000 	    1.2124820000 	   -0.0509490000
