19
tauto -419.256141455
C   	    1.8270320000 	    1.6100790000 	   -0.0013950000
C   	    0.7238880000 	    0.6037330000 	   -0.0011200000
N   	    0.9418300000 	   -0.7436100000 	   -0.0152990000
C   	    2.2161030000 	   -1.4194600000 	    0.0109580000
N   	   -0.1939290000 	   -1.4538210000 	   -0.0086640000
C   	   -1.1774270000 	   -0.5616040000 	   -0.0004360000
C   	   -2.6165700000 	   -0.9624690000 	    0.0014680000
C   	   -0.6470410000 	    0.7453710000 	    0.0033430000
O   	   -1.4172420000 	    1.8743990000 	    0.0147000000
H   	    2.5240540000 	    1.4532700000 	    0.8301530000
H   	    1.4212400000 	    2.6215480000 	    0.1090140000
H   	    2.4060690000 	    1.5907300000 	   -0.9326960000
H   	    2.8542700000 	   -1.0831490000 	   -0.8132430000
H   	    2.0140310000 	   -2.4848410000 	   -0.1012400000
H   	    2.7385550000 	   -1.2494380000 	    0.9594730000
H   	   -2.6947410000 	   -2.0524870000 	   -0.0155980000
H   	   -3.1408280000 	   -0.5590960000 	   -0.8717160000
H   	   -3.1313870000 	   -0.5880280000 	    0.8929650000
H   	   -0.8445420000 	    2.6444150000 	   -0.0838810000
