20
tauto -478.20965341
C   	    1.8051610000 	   -2.3065810000 	   -0.0000840000
N   	    1.2198570000 	   -0.9879710000 	    0.0000340000
C   	   -0.1152360000 	   -0.6747610000 	    0.0000250000
C   	   -1.2496720000 	   -1.4995250000 	    0.0000520000
C   	   -2.4909310000 	   -0.8930920000 	    0.0000150000
C   	   -2.6261930000 	    0.5101750000 	   -0.0000280000
C   	   -1.5109550000 	    1.3240800000 	   -0.0000340000
C   	   -0.2371550000 	    0.7350850000 	   -0.0000010000
C   	    1.1015250000 	    1.2536060000 	    0.0000150000
O   	    1.4868010000 	    2.5628530000 	    0.0000050000
C   	    1.9529940000 	    0.1914160000 	    0.0000770000
H   	    1.0113060000 	   -3.0555090000 	   -0.0012150000
H   	    2.4221950000 	   -2.4614610000 	    0.8919650000
H   	    2.4237780000 	   -2.4604910000 	   -0.8911950000
H   	   -1.1649310000 	   -2.5832470000 	    0.0001130000
H   	   -3.3842770000 	   -1.5124550000 	    0.0000280000
H   	   -3.6190900000 	    0.9514380000 	   -0.0000450000
H   	   -1.6272480000 	    2.4071980000 	   -0.0000460000
H   	    0.6932520000 	    3.1104870000 	   -0.0002230000
H   	    3.0343770000 	    0.1745980000 	    0.0001210000
