16
tauto -379.992773872
C   	    1.9062320000 	   -1.3112220000 	    0.4317760000
C   	    0.8746770000 	   -0.6186230000 	   -0.4449660000
N   	   -0.4939120000 	   -1.0530870000 	   -0.2431150000
C   	   -1.2578220000 	    0.0431100000 	    0.0155290000
C   	   -2.7377390000 	   -0.0914360000 	    0.1623520000
N   	   -0.6225280000 	    1.1715550000 	    0.1461190000
C   	    0.7291770000 	    0.8799690000 	   -0.0926830000
O   	    1.6587740000 	    1.6468140000 	   -0.0247330000
H   	    2.0378270000 	   -2.3611220000 	    0.1508030000
H   	    1.6052580000 	   -1.2648030000 	    1.4828780000
H   	    2.8631460000 	   -0.7927590000 	    0.3227540000
H   	    1.1533480000 	   -0.6978120000 	   -1.5045210000
H   	   -0.8732560000 	   -1.9144980000 	   -0.6027300000
H   	   -3.1803310000 	   -0.4946970000 	   -0.7551340000
H   	   -3.1698130000 	    0.8876720000 	    0.3690310000
H   	   -2.9784480000 	   -0.7765550000 	    0.9817000000
