22
tauto -458.580954074
C   	   -2.6618400000 	   -1.0427310000 	    0.7725350000
C   	   -1.9781030000 	   -0.5277820000 	   -0.5006940000
C   	   -0.6218120000 	    0.0587380000 	   -0.2714690000
N   	    0.5422300000 	   -0.6978600000 	   -0.1389510000
C   	    0.6396140000 	   -2.1270210000 	   -0.3289140000
C   	    1.5606790000 	    0.1706640000 	    0.1029500000
C   	    2.9840800000 	   -0.2446850000 	    0.2893740000
N   	    1.1398780000 	    1.4173460000 	    0.1490950000
C   	   -0.1976530000 	    1.3477370000 	   -0.0782610000
O   	   -0.9173960000 	    2.5012160000 	   -0.0895620000
H   	   -3.6560060000 	   -1.4476510000 	    0.5534720000
H   	   -2.7705250000 	   -0.2362010000 	    1.5050510000
H   	   -2.0727430000 	   -1.8357730000 	    1.2466170000
H   	   -2.6138710000 	    0.2379590000 	   -0.9661690000
H   	   -1.9208340000 	   -1.3360010000 	   -1.2425800000
H   	   -0.0448450000 	   -2.6570650000 	    0.3412110000
H   	    1.6580910000 	   -2.4499940000 	   -0.1057730000
H   	    0.4061870000 	   -2.4035170000 	   -1.3631760000
H   	    3.3984670000 	   -0.7177050000 	   -0.6087520000
H   	    3.1056820000 	   -0.9423860000 	    1.1262630000
H   	    3.5664890000 	    0.6530020000 	    0.5032100000
H   	   -1.8414760000 	    2.2796740000 	   -0.2570080000
