29
tauto -783.211443161
O   	   -1.2448490000 	    2.9152050000 	   -0.2266670000
C   	   -0.5604720000 	    1.7578910000 	   -0.1175260000
C   	   -1.0131170000 	    0.4753910000 	   -0.0138250000
C   	   -2.3315080000 	   -0.1429700000 	    0.0185540000
C   	   -2.5172270000 	   -1.4634770000 	   -0.4084120000
C   	   -3.7834380000 	   -2.0328110000 	   -0.3942250000
C   	   -4.8849360000 	   -1.2951090000 	    0.0347560000
C   	   -4.7073030000 	    0.0147760000 	    0.4681610000
C   	   -3.4396390000 	    0.5861140000 	    0.4697480000
O   	    0.1123160000 	   -0.3188160000 	    0.0236950000
C   	    1.1511490000 	    0.5355420000 	   -0.0312840000
C   	    2.5081100000 	   -0.0138210000 	    0.0153910000
C   	    3.5957870000 	    0.8603410000 	   -0.0569650000
C   	    4.8895720000 	    0.3585580000 	   -0.0121980000
C   	    5.1053040000 	   -1.0130150000 	    0.1046550000
C   	    4.0215650000 	   -1.8839240000 	    0.1765010000
C   	    2.7238370000 	   -1.3885140000 	    0.1323530000
N   	    0.8068800000 	    1.7858910000 	   -0.1184800000
H   	   -2.1490850000 	    2.7102070000 	   -0.5013550000
H   	   -1.6603940000 	   -2.0358600000 	   -0.7528470000
H   	   -3.9136100000 	   -3.0593950000 	   -0.7271620000
H   	   -5.8746730000 	   -1.7435050000 	    0.0394020000
H   	   -5.5566660000 	    0.5918160000 	    0.8246320000
H   	   -3.3020460000 	    1.5882900000 	    0.8717470000
H   	    3.4079730000 	    1.9263570000 	   -0.1479190000
H   	    5.7338500000 	    1.0405910000 	   -0.0678980000
H   	    6.1191360000 	   -1.4033960000 	    0.1405570000
H   	    4.1869670000 	   -2.9539730000 	    0.2694720000
H   	    1.8745410000 	   -2.0632910000 	    0.1903920000
