26
tauto -689.777475993
O   	    1.1374510000 	    3.0885160000 	   -0.0717830000
C   	    0.0192660000 	    2.3589010000 	    0.0187140000
O   	   -1.0637420000 	    3.1383110000 	    0.2198640000
C   	    0.0119740000 	    1.0135170000 	   -0.0792520000
C   	   -1.1742540000 	    0.1425610000 	   -0.0611700000
C   	   -2.5415090000 	    0.4079700000 	   -0.1505660000
C   	   -3.4483290000 	   -0.6490860000 	   -0.0972320000
C   	   -3.0059030000 	   -1.9650710000 	    0.0282270000
C   	   -1.6426310000 	   -2.2444890000 	    0.0799240000
C   	   -0.7321290000 	   -1.1966010000 	    0.0292030000
C   	    0.7346780000 	   -1.2025780000 	    0.0240700000
C   	    1.1868460000 	    0.1294330000 	   -0.0650050000
C   	    2.5531300000 	    0.4026780000 	   -0.0968020000
C   	    3.4498750000 	   -0.6603690000 	   -0.0394740000
C   	    3.0006990000 	   -1.9802020000 	    0.0501380000
C   	    1.6382930000 	   -2.2582910000 	    0.0826010000
H   	    0.9181600000 	    3.9993800000 	    0.1742440000
H   	   -1.7804660000 	    2.5905070000 	    0.5728930000
H   	   -2.9280100000 	    1.4112070000 	   -0.3261780000
H   	   -4.5131210000 	   -0.4428430000 	   -0.1704710000
H   	   -3.7282820000 	   -2.7760930000 	    0.0666090000
H   	   -1.2953850000 	   -3.2731140000 	    0.1513810000
H   	    2.9111480000 	    1.4247120000 	   -0.1693520000
H   	    4.5181380000 	   -0.4594450000 	   -0.0683660000
H   	    3.7209510000 	   -2.7932790000 	    0.0919240000
H   	    1.2871590000 	   -3.2858790000 	    0.1524240000
