26
tauto -502.680206612
C   	   -3.7755840000 	   -0.0477920000 	    0.0091140000
C   	   -2.2676670000 	   -0.0208450000 	   -0.0026640000
C   	   -1.5350530000 	   -1.2057410000 	    0.0606630000
C   	   -0.1433530000 	   -1.2039060000 	    0.0724770000
C   	    0.6206250000 	   -2.5032260000 	    0.1341890000
C   	    0.5355790000 	    0.0242360000 	    0.0286940000
C   	    2.0271410000 	    0.0274220000 	    0.0390240000
O   	    2.5437100000 	   -0.4046390000 	   -1.1510250000
C   	    2.7692740000 	    0.3892420000 	    1.0869360000
C   	   -0.1770750000 	    1.2276970000 	   -0.0468980000
C   	    0.5303990000 	    2.5596970000 	   -0.1243700000
C   	   -1.5718860000 	    1.1829000000 	   -0.0609500000
H   	   -4.1630450000 	   -0.8842870000 	   -0.5818050000
H   	   -4.1944440000 	    0.8780970000 	   -0.3973610000
H   	   -4.1584290000 	   -0.1639470000 	    1.0302280000
H   	   -2.0625350000 	   -2.1583020000 	    0.0989440000
H   	   -0.0575200000 	   -3.3506610000 	    0.2705090000
H   	    1.3370270000 	   -2.4975130000 	    0.9634890000
H   	    1.1934050000 	   -2.6612060000 	   -0.7853750000
H   	    3.5076930000 	   -0.4294930000 	   -1.0729000000
H   	    2.2951360000 	    0.7098650000 	    2.0073190000
H   	    3.8571190000 	    0.3762760000 	    1.0570410000
H   	    1.3178080000 	    2.5483190000 	   -0.8848430000
H   	    1.0078370000 	    2.8179230000 	    0.8269110000
H   	   -0.1761780000 	    3.3566130000 	   -0.3750350000
H   	   -2.1279510000 	    2.1173340000 	   -0.1261990000
