15
tauto -396.007511328
C   	   -1.9736770000 	   -1.3432170000 	   -0.0401880000
N   	   -0.7226280000 	   -0.6239290000 	    0.0192800000
C   	   -0.5642640000 	    0.7182690000 	    0.0043920000
N   	   -1.6611580000 	    1.5847500000 	   -0.0648200000
N   	    0.7037490000 	    1.0767780000 	   -0.0066060000
C   	    1.3929250000 	   -0.1031380000 	    0.0025210000
O   	    2.7459690000 	   -0.1147150000 	   -0.0065280000
C   	    0.5577570000 	   -1.1796510000 	    0.0340150000
H   	   -2.7400190000 	   -0.6711340000 	   -0.4340710000
H   	   -2.2801420000 	   -1.7053540000 	    0.9477230000
H   	   -1.8719260000 	   -2.1978110000 	   -0.7143930000
H   	   -2.2167300000 	    1.5792020000 	    0.7845080000
H   	   -1.3206720000 	    2.5259270000 	   -0.2243580000
H   	    3.0158140000 	    0.8139210000 	   -0.0166830000
H   	    0.7297420000 	   -2.2438060000 	    0.0700830000
