12
tauto -356.672667377
C   	    1.9801430000 	   -0.6231150000 	    0.0000110000
N   	    0.5595880000 	   -0.3730800000 	   -0.0000220000
N   	   -0.3450280000 	   -1.4102100000 	   -0.0000020000
N   	   -1.5195390000 	   -0.9933270000 	    0.0000090000
C   	   -1.5227520000 	    0.4707820000 	    0.0000020000
C   	   -0.0607120000 	    0.8578050000 	   -0.0000090000
O   	    0.4796320000 	    1.9410770000 	    0.0000040000
H   	    2.2729870000 	   -1.1808190000 	    0.8933170000
H   	    2.4679180000 	    0.3539500000 	   -0.0001290000
H   	    2.2729700000 	   -1.1810480000 	   -0.8931600000
H   	   -2.0480580000 	    0.8413990000 	    0.8854090000
H   	   -2.0480880000 	    0.8413960000 	   -0.8853880000
