12
tauto -356.656556094
C   	   -2.4027680000 	   -0.2882790000 	    0.0257500000
N   	   -0.9824520000 	   -0.0583660000 	   -0.0471400000
C   	    0.0632100000 	   -1.0397530000 	   -0.0126750000
N   	   -0.4964510000 	    1.1744720000 	   -0.0086410000
N   	    0.7717150000 	    1.2235860000 	    0.0078320000
C   	    1.2804430000 	   -0.1114090000 	    0.0046460000
O   	    2.4392550000 	   -0.4237900000 	    0.0136310000
H   	   -2.7383830000 	   -0.8990700000 	   -0.8189020000
H   	   -2.8930000000 	    0.6859380000 	   -0.0145580000
H   	   -2.6724840000 	   -0.7917530000 	    0.9614350000
H   	    0.0681070000 	   -1.6850460000 	   -0.8974890000
H   	    0.0267330000 	   -1.6609430000 	    0.8897750000
