30
tauto -505.10692118
C   	    1.1596030000 	   -1.5836180000 	    1.5439650000
C   	    0.7486860000 	   -1.0794410000 	    0.1519670000
C   	    1.9363370000 	   -1.0630100000 	   -0.8313920000
C   	    2.9708940000 	    0.0184600000 	   -0.5120910000
C   	    2.3098140000 	    1.3937480000 	   -0.4170080000
C   	    1.1438050000 	    1.3828060000 	    0.5850710000
C   	    0.1369530000 	    0.3121400000 	    0.2197360000
C   	   -1.1585670000 	    0.6023700000 	   -0.0187980000
C   	   -1.7096760000 	    2.0155740000 	    0.0794970000
C   	   -2.1747920000 	   -0.4570380000 	   -0.3358910000
C   	   -3.5751030000 	   -0.2612830000 	    0.2274860000
O   	   -1.9407200000 	   -1.4392460000 	   -1.0163150000
H   	    1.5461140000 	   -2.6065530000 	    1.4692570000
H   	    0.2987830000 	   -1.5990680000 	    2.2218660000
H   	    1.9392880000 	   -0.9718900000 	    2.0104170000
H   	    0.0098820000 	   -1.7727990000 	   -0.2470210000
H   	    1.5408320000 	   -0.8930080000 	   -1.8419580000
H   	    2.4090450000 	   -2.0535480000 	   -0.8396600000
H   	    3.7524320000 	    0.0265930000 	   -1.2812660000
H   	    3.4737910000 	   -0.2090980000 	    0.4380720000
H   	    1.9248540000 	    1.6821990000 	   -1.4051860000
H   	    3.0418040000 	    2.1560380000 	   -0.1242480000
H   	    0.6871570000 	    2.3732950000 	    0.6431340000
H   	    1.5431250000 	    1.1717540000 	    1.5870300000
H   	   -1.8283240000 	    2.3495030000 	    1.1181650000
H   	   -2.6888730000 	    2.0978770000 	   -0.4000570000
H   	   -1.0559350000 	    2.7326280000 	   -0.4246730000
H   	   -3.5702720000 	    0.2512950000 	    1.1944530000
H   	   -4.0462290000 	   -1.2417090000 	    0.3221770000
H   	   -4.1794470000 	    0.3362090000 	   -0.4652300000
