15
tauto -250.61296462
C   	   -2.2080870000 	    0.0186700000 	    0.0187510000
C   	   -0.7163360000 	    0.0981270000 	   -0.0058240000
C   	    0.0760830000 	    1.1715450000 	    0.0751570000
C   	    1.5158750000 	    0.7436420000 	   -0.0918400000
C   	    1.4117750000 	   -0.7776030000 	    0.1371600000
N   	    0.0183150000 	   -1.0889930000 	   -0.2138070000
H   	   -2.6494440000 	    1.0109960000 	    0.1399470000
H   	   -2.5579950000 	   -0.6139220000 	    0.8446870000
H   	   -2.5837550000 	   -0.4212050000 	   -0.9120520000
H   	   -0.2639420000 	    2.1991840000 	    0.1276690000
H   	    2.2108360000 	    1.2155810000 	    0.6112610000
H   	    1.8784360000 	    0.9646660000 	   -1.1062240000
H   	    1.6087750000 	   -1.0058070000 	    1.1962420000
H   	    2.1099760000 	   -1.3559580000 	   -0.4753120000
H   	   -0.3569460000 	   -1.8968680000 	    0.2700000000
