20
tauto -382.284033643
C   	    2.6055210000 	    0.1190750000 	    0.4163380000
C   	    1.2306180000 	   -0.2983400000 	   -0.0392590000
C   	    1.0940970000 	   -1.7812460000 	   -0.3042990000
C   	    0.2243390000 	    0.5685040000 	   -0.2334580000
C   	    0.2465740000 	    2.0417830000 	    0.0747510000
N   	   -0.9917530000 	    0.1735270000 	   -0.8698620000
N   	   -2.1083700000 	    0.2763630000 	   -0.0353890000
O   	   -2.2235150000 	   -0.9057020000 	    0.7708100000
H   	    2.8501740000 	   -0.3350280000 	    1.3857880000
H   	    2.7244080000 	    1.2007220000 	    0.5072140000
H   	    3.3627740000 	   -0.2361570000 	   -0.2953220000
H   	    1.7499210000 	   -2.3426030000 	    0.3714340000
H   	    1.3942350000 	   -2.0503940000 	   -1.3266090000
H   	    0.0738960000 	   -2.1408470000 	   -0.1365020000
H   	    1.0000960000 	    2.3053130000 	    0.8193600000
H   	   -0.7334310000 	    2.3416770000 	    0.4581630000
H   	    0.4327640000 	    2.6244350000 	   -0.8354830000
H   	   -0.9262360000 	   -0.7621890000 	   -1.2633320000
H   	   -2.9230040000 	    0.1978770000 	   -0.6378290000
H   	   -1.9235150000 	   -0.6050840000 	    1.6389560000
