31
tauto -431.098908365
C   	   -0.9982750000 	    2.4407880000 	    0.6187510000
C   	    0.0538570000 	    1.3251300000 	    0.5953390000
C   	    1.1024900000 	    1.5774860000 	   -0.5026570000
C   	    2.3079820000 	    0.6261480000 	   -0.5068970000
C   	    1.9762300000 	   -0.8304550000 	   -0.8714790000
C   	    1.5187890000 	   -1.7247740000 	    0.2906160000
C   	    0.5174630000 	   -1.0660080000 	    1.2612500000
C   	   -0.4460460000 	   -0.1207790000 	    0.5608270000
C   	   -1.5211530000 	   -0.5737020000 	   -0.1043250000
C   	   -1.9346670000 	   -2.0280320000 	   -0.1075560000
C   	   -2.4282130000 	    0.2822450000 	   -0.9681880000
H   	   -0.5359170000 	    3.3666660000 	    0.9804720000
H   	   -1.8238220000 	    2.1926270000 	    1.2946690000
H   	   -1.4192590000 	    2.6564480000 	   -0.3669420000
H   	    0.5881150000 	    1.4194140000 	    1.5518830000
H   	    1.4669420000 	    2.6090660000 	   -0.3968260000
H   	    0.6082540000 	    1.5228840000 	   -1.4845080000
H   	    2.8167400000 	    0.6653120000 	    0.4678850000
H   	    3.0298900000 	    1.0124300000 	   -1.2373500000
H   	    2.8555350000 	   -1.2985530000 	   -1.3314910000
H   	    1.1976590000 	   -0.8208450000 	   -1.6458950000
H   	    2.3939020000 	   -2.0560560000 	    0.8657020000
H   	    1.0709350000 	   -2.6320420000 	   -0.1357240000
H   	    1.0794200000 	   -0.4997750000 	    2.0131210000
H   	   -0.0087980000 	   -1.8472920000 	    1.8201620000
H   	   -1.3905350000 	   -2.6464990000 	    0.6090180000
H   	   -1.7868270000 	   -2.4655310000 	   -1.1043770000
H   	   -3.0059480000 	   -2.1174140000 	    0.1153840000
H   	   -1.8711630000 	    0.9950620000 	   -1.5822790000
H   	   -3.1551490000 	    0.8494570000 	   -0.3746610000
H   	   -3.0007170000 	   -0.3536420000 	   -1.6523340000
