17
tauto -400.966914518
C   	    2.1096920000 	    1.4530620000 	   -0.1333680000
C   	    0.6376530000 	    1.2260990000 	    0.0231680000
C   	    0.0317150000 	    0.0392850000 	   -0.1184100000
C   	   -1.4522850000 	   -0.1292550000 	   -0.0174740000
C   	   -2.3346940000 	    1.0832620000 	    0.1740110000
O   	   -1.9316210000 	   -1.2465540000 	   -0.1042580000
N   	    0.7162230000 	   -1.1580620000 	   -0.4172850000
O   	    1.7579600000 	   -1.4060780000 	    0.5160710000
H   	    2.3160320000 	    2.4888210000 	   -0.4188100000
H   	    2.5207190000 	    0.7917100000 	   -0.9039390000
H   	    2.6463100000 	    1.2457500000 	    0.7993220000
H   	    0.0242340000 	    2.0877490000 	    0.2731150000
H   	   -2.1804090000 	    1.8125730000 	   -0.6273480000
H   	   -2.1125900000 	    1.5785200000 	    1.1251930000
H   	   -3.3747230000 	    0.7539100000 	    0.1745100000
H   	    0.0548060000 	   -1.9256380000 	   -0.3126890000
H   	    2.5288560000 	   -1.5406230000 	   -0.0504300000
