16
tauto -325.84066158
C   	   -3.3626550000 	    0.1803680000 	    0.0147950000
C   	   -2.0352370000 	   -0.5179080000 	   -0.0036580000
C   	   -0.8672380000 	    0.1210900000 	   -0.0061700000
N   	    0.3814620000 	   -0.5111920000 	   -0.0239370000
C   	    1.5649720000 	    0.1879720000 	   -0.0143770000
C   	    2.8117530000 	   -0.6719800000 	    0.0190660000
O   	    1.6045690000 	    1.4041810000 	   -0.0035350000
H   	   -3.9642940000 	   -0.0806900000 	   -0.8644440000
H   	   -3.2351710000 	    1.2677230000 	    0.0240350000
H   	   -3.9489180000 	   -0.0973820000 	    0.8993040000
H   	   -2.0497000000 	   -1.6094150000 	   -0.0155690000
H   	   -0.7840130000 	    1.2038740000 	    0.0049970000
H   	    0.4083920000 	   -1.5199000000 	   -0.0316880000
H   	    2.6692280000 	   -1.6488450000 	   -0.4533550000
H   	    3.1109240000 	   -0.8311590000 	    1.0606010000
H   	    3.6171950000 	   -0.1365720000 	   -0.4859810000
