20
tauto -403.221150385
C   	   -2.9482960000 	   -0.4505350000 	    0.1149670000
N   	   -1.8518700000 	    0.5010680000 	    0.1601930000
C   	   -0.6673310000 	    0.0910760000 	   -0.0435260000
C   	   -0.2361320000 	   -1.3324360000 	   -0.3493300000
C   	    1.1491690000 	   -1.6856470000 	    0.2035430000
C   	    2.1916480000 	   -0.6441390000 	   -0.1946220000
C   	    1.8181290000 	    0.7286290000 	    0.3697560000
C   	    0.4159930000 	    1.1690460000 	   -0.0116850000
O   	    0.1546440000 	    2.3222040000 	   -0.2632940000
H   	   -3.8897780000 	    0.0863130000 	    0.2527110000
H   	   -2.8668860000 	   -1.2013500000 	    0.9126830000
H   	   -2.9922820000 	   -0.9833830000 	   -0.8441370000
H   	   -0.2231490000 	   -1.4446470000 	   -1.4447060000
H   	   -0.9824620000 	   -2.0422950000 	    0.0221370000
H   	    1.4387610000 	   -2.6795390000 	   -0.1559390000
H   	    1.1005300000 	   -1.7486440000 	    1.2994060000
H   	    2.2596310000 	   -0.5900890000 	   -1.2900350000
H   	    3.1838750000 	   -0.9354240000 	    0.1675570000
H   	    2.5122930000 	    1.5156390000 	    0.0615170000
H   	    1.8463240000 	    0.6823420000 	    1.4691920000
