16
tauto -434.091049653
C   	    3.3161780000 	   -0.1132360000 	   -0.0000750000
C   	    1.9852610000 	   -0.8042440000 	    0.0001120000
C   	    0.7762950000 	   -0.2251440000 	   -0.0000500000
C   	    0.5197630000 	    1.2194940000 	    0.0001990000
N   	   -0.6431520000 	    1.7553880000 	    0.0001390000
N   	   -1.7139270000 	    0.9193090000 	   -0.0005140000
N   	   -0.4114540000 	   -0.9798590000 	   -0.0000940000
C   	   -1.6832970000 	   -0.4620190000 	   -0.0000400000
O   	   -2.6911890000 	   -1.1400590000 	    0.0002320000
H   	    3.9029290000 	   -0.3986210000 	    0.8813860000
H   	    3.2342810000 	    0.9765520000 	   -0.0009520000
H   	    3.9031410000 	   -0.3998320000 	   -0.8810110000
H   	    2.0167140000 	   -1.8942760000 	    0.0003420000
H   	    1.3541590000 	    1.9118530000 	    0.0006280000
H   	   -2.6196860000 	    1.3605690000 	    0.0005010000
H   	   -0.3674830000 	   -1.9887450000 	   -0.0003510000
