30
tauto -763.357980932
O   	   -0.6733590000 	    1.9137690000 	    0.1457850000
C   	    0.2253830000 	    1.1011420000 	    0.0358830000
N   	    1.5343710000 	    1.4913230000 	    0.1820780000
C   	    2.6660490000 	    0.6692560000 	    0.1320730000
C   	    3.9434770000 	    1.1504260000 	    0.3872990000
C   	    5.0393020000 	    0.2955020000 	    0.3101880000
C   	    4.8487040000 	   -1.0419790000 	   -0.0205260000
C   	    3.5696920000 	   -1.5274140000 	   -0.2726420000
C   	    2.4690800000 	   -0.6757540000 	   -0.1989750000
N   	    1.1777090000 	   -1.1037080000 	   -0.4619570000
C   	    0.0121040000 	   -0.3603180000 	   -0.2311370000
C   	   -1.1822320000 	   -0.9852730000 	   -0.2248870000
C   	   -2.5738840000 	   -0.5101340000 	   -0.0919250000
C   	   -3.4593990000 	   -1.3280890000 	    0.6231410000
C   	   -4.8012470000 	   -0.9943270000 	    0.7576110000
C   	   -5.2916680000 	    0.1611900000 	    0.1575270000
C   	   -4.4288260000 	    0.9695600000 	   -0.5771950000
C   	   -3.0846710000 	    0.6396440000 	   -0.7046950000
H   	    1.6457260000 	    2.4727530000 	    0.3986030000
H   	    4.0768860000 	    2.1991560000 	    0.6440020000
H   	    6.0360640000 	    0.6778310000 	    0.5084010000
H   	    5.6973440000 	   -1.7173760000 	   -0.0814740000
H   	    3.4174220000 	   -2.5737780000 	   -0.5289470000
H   	    1.0502480000 	   -2.0859620000 	   -0.6554830000
H   	   -1.1160650000 	   -2.0721870000 	   -0.3178200000
H   	   -3.0822950000 	   -2.2378480000 	    1.0872540000
H   	   -5.4641030000 	   -1.6398700000 	    1.3284730000
H   	   -6.3415220000 	    0.4259630000 	    0.2553550000
H   	   -4.8051400000 	    1.8680520000 	   -1.0599830000
H   	   -2.4234400000 	    1.2792120000 	   -1.2759550000
