22
tauto -442.3204819
C   	    3.3887450000 	   -0.7973110000 	   -0.2064310000
C   	    2.0585410000 	   -0.1305920000 	   -0.0144350000
C   	    1.8596780000 	    1.1890430000 	   -0.0768000000
C   	    0.5119920000 	    1.8127880000 	    0.1758590000
C   	   -0.6038770000 	    0.7924570000 	    0.0626110000
C   	   -1.9307270000 	    1.1871980000 	   -0.0906870000
C   	   -2.9672950000 	    0.2623570000 	   -0.1576050000
C   	   -2.6720720000 	   -1.0954150000 	   -0.0751830000
C   	   -1.3561270000 	   -1.5139250000 	    0.0647250000
C   	   -0.3201720000 	   -0.5784270000 	    0.1326080000
N   	    1.0040340000 	   -1.0075770000 	    0.2688510000
H   	    4.1699390000 	   -0.0562930000 	   -0.3899540000
H   	    3.3662470000 	   -1.4892840000 	   -1.0581760000
H   	    3.6648930000 	   -1.3758410000 	    0.6835500000
H   	    2.7048600000 	    1.8396800000 	   -0.2814870000
H   	    0.3312940000 	    2.6320150000 	   -0.5331420000
H   	    0.4889630000 	    2.2767770000 	    1.1750790000
H   	   -2.1516750000 	    2.2516750000 	   -0.1555340000
H   	   -3.9942330000 	    0.5979470000 	   -0.2727220000
H   	   -3.4673680000 	   -1.8348200000 	   -0.1254070000
H   	   -1.1218710000 	   -2.5756550000 	    0.1234650000
H   	    1.1685960000 	   -1.9821920000 	    0.0643940000
