14
tauto -287.479232368
C   	   -2.3669530000 	    0.0097710000 	    0.0000700000
C   	   -1.0214840000 	    0.0358870000 	   -0.0000630000
N   	   -0.2542340000 	   -1.1395700000 	   -0.0002460000
C   	    1.1150770000 	   -1.1699960000 	    0.0000320000
C   	    1.8473820000 	   -0.0370950000 	    0.0000780000
C   	    1.1337440000 	    1.2191600000 	    0.0000020000
C   	   -0.2139750000 	    1.2540180000 	   -0.0000440000
H   	   -2.9249040000 	   -0.9222960000 	    0.0000100000
H   	   -2.9302190000 	    0.9353400000 	    0.0003270000
H   	   -0.7565350000 	   -2.0136340000 	    0.0007380000
H   	    1.5547510000 	   -2.1625000000 	    0.0000800000
H   	    2.9297990000 	   -0.0767200000 	    0.0001260000
H   	    1.6966920000 	    2.1493050000 	    0.0000290000
H   	   -0.7526900000 	    2.1970330000 	   -0.0000380000
