22
tauto -442.317169867
C   	    3.3601890000 	   -0.7887880000 	   -0.1534040000
C   	    2.1290660000 	   -0.3090480000 	    0.0515240000
C   	    1.8463110000 	    1.1096260000 	    0.4795570000
C   	    0.6421420000 	    1.6821350000 	   -0.2732610000
N   	    0.9866320000 	   -1.0960880000 	   -0.0701630000
C   	   -0.3190560000 	   -0.6118790000 	   -0.0356900000
C   	   -0.5506940000 	    0.7704730000 	   -0.1200080000
C   	   -1.8605620000 	    1.2345810000 	   -0.0769310000
C   	   -2.9392120000 	    0.3597740000 	    0.0224740000
C   	   -2.6981760000 	   -1.0090060000 	    0.0883240000
C   	   -1.3970290000 	   -1.4952630000 	    0.0664670000
H   	    4.2271560000 	   -0.1514920000 	   -0.0221980000
H   	    3.5354980000 	   -1.8232550000 	   -0.4382850000
H   	    2.7403780000 	    1.7196830000 	    0.3249970000
H   	    1.6250380000 	    1.1120500000 	    1.5556620000
H   	    0.8970050000 	    1.7840060000 	   -1.3374810000
H   	    0.4039690000 	    2.6863210000 	    0.0946950000
H   	    1.1137670000 	   -2.0882590000 	   -0.1980090000
H   	   -2.0357740000 	    2.3078310000 	   -0.1330440000
H   	   -3.9551530000 	    0.7434990000 	    0.0492050000
H   	   -3.5270780000 	   -1.7081210000 	    0.1664970000
H   	   -1.2091090000 	   -2.5652750000 	    0.1347880000
