16
tauto -363.706863998
C   	    1.6861310000 	    1.1249970000 	    0.0000170000
C   	    0.2421490000 	    0.7086030000 	    0.0000040000
C   	   -0.9475250000 	    1.4186780000 	   -0.0000300000
C   	   -2.1466360000 	    0.7033720000 	   -0.0000140000
C   	   -2.1485870000 	   -0.6923140000 	    0.0000190000
C   	   -0.9535880000 	   -1.4098090000 	    0.0000240000
C   	    0.2322040000 	   -0.6907080000 	    0.0000080000
N   	    1.5479240000 	   -1.2344640000 	   -0.0000640000
C   	    2.3479230000 	   -0.2338500000 	    0.0000080000
H   	    1.9727930000 	    1.7102360000 	    0.8831450000
H   	    1.9729180000 	    1.7106990000 	   -0.8827410000
H   	   -0.9556640000 	    2.5063900000 	   -0.0000730000
H   	   -3.0917650000 	    1.2402890000 	   -0.0000470000
H   	   -3.0957370000 	   -1.2257360000 	    0.0000280000
H   	   -0.9372710000 	   -2.4957920000 	    0.0000350000
H   	    3.4268360000 	   -0.3786560000 	   -0.0001070000
