23
tauto -517.531654604
C   	    4.5698410000 	   -0.1677500000 	    0.0016240000
C   	    3.1293700000 	   -0.6298500000 	   -0.0007780000
O   	    2.3026090000 	    0.5450550000 	   -0.0007860000
C   	    0.9927790000 	    0.3265590000 	   -0.0005710000
C   	    0.0654220000 	    1.5206480000 	   -0.0002810000
N   	    0.4352890000 	   -0.8303570000 	   -0.0005790000
C   	   -0.9598790000 	   -0.5725820000 	   -0.0002040000
C   	   -1.2551590000 	    0.7991640000 	   -0.0000420000
C   	   -2.5663520000 	    1.2398370000 	    0.0003220000
C   	   -3.5897670000 	    0.2877880000 	    0.0005260000
C   	   -3.2915190000 	   -1.0735230000 	    0.0003740000
C   	   -1.9699130000 	   -1.5219430000 	    0.0000050000
H   	    5.2389530000 	   -1.0339940000 	    0.0024510000
H   	    4.7826330000 	    0.4343450000 	    0.8899660000
H   	    4.7856040000 	    0.4349710000 	   -0.8855730000
H   	    2.8837760000 	   -1.2310240000 	    0.8811850000
H   	    2.8862150000 	   -1.2291730000 	   -0.8846990000
H   	    0.2319930000 	    2.1461480000 	   -0.8844740000
H   	    0.2323620000 	    2.1459930000 	    0.8839510000
H   	   -2.8020720000 	    2.3018750000 	    0.0004420000
H   	   -4.6270150000 	    0.6124760000 	    0.0008160000
H   	   -4.1014000000 	   -1.7989440000 	    0.0005470000
H   	   -1.7278860000 	   -2.5807100000 	   -0.0001160000
