20
tauto -441.093900408
C   	    1.8391440000 	    2.1166590000 	    0.0046350000
C   	    1.3746140000 	    0.8559190000 	    0.0001000000
N   	    2.2712130000 	   -0.2196030000 	   -0.0046940000
C   	    1.9074370000 	   -1.5426560000 	   -0.0012100000
C   	    0.6204780000 	   -1.9239450000 	    0.0019290000
C   	   -0.4156970000 	   -0.9046550000 	    0.0012970000
C   	   -0.0575510000 	    0.4595150000 	   -0.0004960000
C   	   -1.0712420000 	    1.4247180000 	   -0.0024690000
C   	   -2.4084130000 	    1.0631900000 	   -0.0019710000
C   	   -2.7622600000 	   -0.2875020000 	    0.0004520000
C   	   -1.7741790000 	   -1.2554530000 	    0.0018910000
H   	    2.9068590000 	    2.3178020000 	    0.0047020000
H   	    1.1807240000 	    2.9745630000 	    0.0085040000
H   	    3.2519520000 	    0.0104940000 	   -0.0028540000
H   	    2.7332800000 	   -2.2469800000 	   -0.0019790000
H   	    0.3524110000 	   -2.9745230000 	    0.0039160000
H   	   -0.8100970000 	    2.4786510000 	   -0.0050150000
H   	   -3.1770350000 	    1.8312340000 	   -0.0036350000
H   	   -3.8097570000 	   -0.5783600000 	    0.0009210000
H   	   -2.0408190000 	   -2.3103960000 	    0.0033520000
