34
tauto -470.400884914
C   	   -1.3046540000 	    1.8951560000 	    1.5660070000
C   	   -0.2105180000 	    1.1127320000 	    0.8272000000
C   	    0.3421020000 	    1.9031650000 	   -0.3781170000
C   	    1.1409670000 	    1.1031720000 	   -1.4122200000
C   	    2.3964970000 	    0.3656890000 	   -0.9151250000
C   	    2.2335560000 	   -1.0568790000 	   -0.3440820000
C   	    1.7644570000 	   -1.1746270000 	    1.1149960000
C   	    0.2430830000 	   -1.3204010000 	    1.3184410000
C   	   -0.5976750000 	   -0.3378830000 	    0.5284820000
C   	   -1.5593810000 	   -0.7136680000 	   -0.3320640000
C   	   -1.9489810000 	   -2.1439650000 	   -0.6328580000
C   	   -2.3943450000 	    0.2443130000 	   -1.1512790000
H   	   -0.9365690000 	    2.8889460000 	    1.8497290000
H   	   -1.6037610000 	    1.3732240000 	    2.4818230000
H   	   -2.2032760000 	    2.0341810000 	    0.9569470000
H   	    0.6200180000 	    1.0509490000 	    1.5403780000
H   	    0.9761010000 	    2.7108280000 	    0.0159600000
H   	   -0.4782650000 	    2.4089970000 	   -0.9040240000
H   	    1.4543510000 	    1.8136600000 	   -2.1884100000
H   	    0.4782980000 	    0.3833170000 	   -1.9098570000
H   	    2.9245460000 	    0.9903070000 	   -0.1782530000
H   	    3.0785790000 	    0.2829760000 	   -1.7711440000
H   	    3.2164930000 	   -1.5392120000 	   -0.4178390000
H   	    1.5649990000 	   -1.6362530000 	   -0.9973530000
H   	    2.1502530000 	   -0.3161730000 	    1.6806220000
H   	    2.2332450000 	   -2.0547530000 	    1.5729220000
H   	    0.0305700000 	   -1.1842560000 	    2.3901350000
H   	   -0.0307680000 	   -2.3522990000 	    1.0877390000
H   	   -1.3854110000 	   -2.8975790000 	   -0.0824160000
H   	   -1.8227740000 	   -2.3501890000 	   -1.7041950000
H   	   -3.0131870000 	   -2.2987900000 	   -0.4112860000
H   	   -2.1690370000 	    1.2954750000 	   -0.9801500000
H   	   -3.4621850000 	    0.0914970000 	   -0.9452990000
H   	   -2.2528660000 	    0.0443240000 	   -2.2223240000
