14
tauto -287.477921041
C   	   -0.0000400000 	    2.4138300000 	    0.0000000000
C   	    0.0000590000 	    1.0695680000 	    0.0000000000
C   	    0.0000660000 	    0.2632280000 	    1.2267390000
C   	    0.0000660000 	   -1.0800830000 	    1.1922380000
N   	   -0.0006640000 	   -1.7758480000 	    0.0000000000
C   	    0.0000660000 	   -1.0800830000 	   -1.1922380000
C   	    0.0000660000 	    0.2632280000 	   -1.2267390000
H   	   -0.0001440000 	    2.9791540000 	    0.9278430000
H   	   -0.0001440000 	    2.9791540000 	   -0.9278430000
H   	    0.0000170000 	    0.7673180000 	    2.1885240000
H   	    0.0001180000 	   -1.6897430000 	    2.0902030000
H   	    0.0029660000 	   -2.7806450000 	    0.0000000000
H   	    0.0001180000 	   -1.6897430000 	   -2.0902030000
H   	    0.0000170000 	    0.7673180000 	   -2.1885240000
