24
tauto -497.663521737
C   	    3.1814540000 	   -1.3264910000 	    0.0041490000
N   	    2.5161190000 	   -0.0465770000 	   -0.1461680000
C   	    3.3068000000 	    1.1310200000 	    0.1377240000
C   	    1.1583370000 	   -0.0132340000 	   -0.0629070000
C   	    0.3769030000 	    1.2944210000 	   -0.0623870000
N   	    0.4265550000 	   -1.0833420000 	   -0.0155340000
C   	   -0.9123970000 	   -0.6433350000 	   -0.0046310000
C   	   -1.0259950000 	    0.7543310000 	   -0.0278660000
C   	   -2.2637980000 	    1.3704050000 	   -0.0124050000
C   	   -3.4079760000 	    0.5679940000 	    0.0234630000
C   	   -3.2938240000 	   -0.8210940000 	    0.0448620000
C   	   -2.0458450000 	   -1.4445610000 	    0.0316730000
H   	    4.1403230000 	   -1.2972810000 	   -0.5233050000
H   	    2.5483350000 	   -2.1052250000 	   -0.4212800000
H   	    3.3643470000 	   -1.5676650000 	    1.0612660000
H   	    4.2817580000 	    1.0319330000 	   -0.3495730000
H   	    3.4761300000 	    1.2749370000 	    1.2160880000
H   	    2.8242540000 	    2.0259380000 	   -0.2619600000
H   	    0.5910570000 	    1.8907290000 	   -0.9578030000
H   	    0.6219360000 	    1.9107170000 	    0.8116610000
H   	   -2.3532260000 	    2.4548400000 	   -0.0291340000
H   	   -4.3913800000 	    1.0305330000 	    0.0347430000
H   	   -4.1942930000 	   -1.4303530000 	    0.0722700000
H   	   -1.9499200000 	   -2.5263980000 	    0.0489000000
