14
tauto -341.63010077
C   	   -1.3578170000 	   -1.1537520000 	    0.0001830000
C   	    0.0712420000 	   -0.6912620000 	    0.0001720000
N   	    1.2715900000 	   -1.2071160000 	   -0.0002380000
C   	    2.1069410000 	   -0.1064380000 	   -0.0000960000
C   	    1.4015920000 	    1.0698100000 	    0.0000730000
N   	    0.0852710000 	    0.6738390000 	    0.0002250000
C   	   -1.2279000000 	    1.1859360000 	   -0.0001070000
C   	   -2.0976720000 	    0.1706230000 	   -0.0002580000
H   	   -1.5943030000 	   -1.7591730000 	    0.8829720000
H   	   -1.5941630000 	   -1.7597970000 	   -0.8821880000
H   	    3.1828310000 	   -0.2258080000 	   -0.0002090000
H   	    1.7068500000 	    2.1055630000 	    0.0002690000
H   	   -1.4020040000 	    2.2540690000 	   -0.0001150000
H   	   -3.1755650000 	    0.2685790000 	   -0.0004350000
