21
tauto -458.361128394
C   	    1.7565580000 	    1.8924860000 	   -0.0755420000
N   	    1.0790030000 	    0.6224560000 	    0.0213850000
C   	    1.6821420000 	   -0.6208180000 	    0.0124440000
N   	    3.0818400000 	   -0.6907470000 	   -0.0408940000
C   	    0.7351900000 	   -1.6068160000 	   -0.0050780000
C   	   -0.2912520000 	    0.4386040000 	    0.0204010000
C   	   -0.5435280000 	   -0.9511330000 	   -0.0108870000
C   	   -1.8729840000 	   -1.3933250000 	   -0.0243340000
C   	   -2.8960610000 	   -0.4589630000 	   -0.0097870000
C   	   -2.6208120000 	    0.9183530000 	    0.0210920000
C   	   -1.3154550000 	    1.3855230000 	    0.0403430000
H   	    2.7641250000 	    1.7221660000 	   -0.4622620000
H   	    1.8211660000 	    2.3992520000 	    0.8953200000
H   	    1.2209040000 	    2.5424520000 	   -0.7745060000
H   	    3.5229650000 	   -0.3187780000 	    0.7944850000
H   	    3.3870730000 	   -1.6473610000 	   -0.1709550000
H   	    0.9273550000 	   -2.6719880000 	    0.0046750000
H   	   -2.0967820000 	   -2.4574820000 	   -0.0474080000
H   	   -3.9301270000 	   -0.7944860000 	   -0.0212570000
H   	   -3.4429660000 	    1.6293270000 	    0.0327050000
H   	   -1.1023970000 	    2.4514770000 	    0.0738520000
