12
tauto -265.43635971
N   	   -2.0802890000 	    0.1408830000 	   -0.0424350000
C   	   -0.8134980000 	    0.0375920000 	    0.0141890000
N   	   -0.0178760000 	   -1.1054820000 	    0.0770440000
C   	    1.3406780000 	   -0.7611010000 	   -0.0202390000
C   	    1.5068750000 	    0.5618130000 	   -0.0387820000
C   	    0.1501770000 	    1.2170380000 	    0.0282240000
H   	   -2.5240670000 	   -0.7794790000 	   -0.0328230000
H   	   -0.3743850000 	   -2.0225770000 	   -0.1395490000
H   	    2.0863160000 	   -1.5469920000 	   -0.0386780000
H   	    2.4540050000 	    1.0837190000 	   -0.0655380000
H   	   -0.0638570000 	    1.8862270000 	   -0.8120430000
H   	    0.0037520000 	    1.7992420000 	    0.9460120000
