19
tauto -457.11116468
C   	    2.7142270000 	    0.6813230000 	    0.0000560000
C   	    2.7189860000 	   -0.7018300000 	    0.0000580000
C   	    1.4987410000 	   -1.3744800000 	    0.0000050000
C   	    1.4974450000 	    1.3602840000 	    0.0000090000
C   	    0.2773170000 	    0.6902530000 	   -0.0000480000
C   	    0.2663300000 	   -0.7240570000 	   -0.0000480000
N   	   -0.8302450000 	   -1.6335830000 	   -0.0001050000
C   	   -2.0663780000 	   -1.3235090000 	    0.0000010000
C   	   -2.7596220000 	   -0.0356750000 	    0.0001370000
C   	   -2.1928390000 	    1.1821630000 	    0.0000430000
N   	   -0.8677080000 	    1.5184380000 	   -0.0001070000
H   	    3.6434070000 	    1.2447680000 	    0.0000920000
H   	    3.6516370000 	   -1.2583510000 	    0.0000930000
H   	    1.4596520000 	   -2.4597490000 	   -0.0000040000
H   	    1.4944270000 	    2.4496190000 	    0.0000190000
H   	   -2.7420910000 	   -2.1849720000 	   -0.0000700000
H   	   -3.8439090000 	   -0.0745100000 	    0.0002670000
H   	   -2.8381040000 	    2.0577860000 	    0.0000940000
H   	   -0.6645930000 	    2.5045880000 	   -0.0002880000
