14
tauto -287.472445167
C   	    1.3747080000 	   -0.2471550000 	    0.5714150000
C   	    0.6961670000 	   -1.3021040000 	   -0.2665580000
N   	   -0.5698960000 	   -1.4388570000 	   -0.3511640000
C   	   -1.4401620000 	   -0.5135190000 	    0.1933170000
C   	   -1.2931960000 	    0.8371780000 	    0.1746070000
C   	   -0.1102050000 	    1.5391360000 	   -0.2725970000
C   	    1.1365820000 	    1.0435410000 	   -0.1540410000
H   	    2.4383940000 	   -0.4619890000 	    0.6978240000
H   	    0.8927930000 	   -0.2203310000 	    1.5589750000
H   	    1.3141530000 	   -1.9748010000 	   -0.8654210000
H   	   -2.3992850000 	   -0.9346790000 	    0.4889070000
H   	   -2.1727090000 	    1.4314060000 	    0.4151690000
H   	   -0.2504820000 	    2.5194820000 	   -0.7252340000
H   	    1.9830450000 	    1.5704490000 	   -0.5889270000
