25
tauto -684.941520544
C   	   -2.7977500000 	    2.5448200000 	   -0.1243720000
O   	   -3.0860340000 	    1.1813190000 	   -0.4696460000
C   	   -2.2092720000 	    0.3036200000 	   -0.0654500000
N   	   -1.1367120000 	    0.5089060000 	    0.6074320000
C   	   -0.6093460000 	   -0.8167610000 	    0.7393820000
C   	    0.6910980000 	   -0.9662400000 	    1.4554420000
C   	    1.8169520000 	   -0.3725950000 	    0.6276820000
C   	    2.5167320000 	   -1.1748310000 	   -0.2735890000
C   	    3.5386370000 	   -0.6375970000 	   -1.0502660000
C   	    3.8658080000 	    0.7102960000 	   -0.9364010000
C   	    3.1643640000 	    1.5182600000 	   -0.0458670000
C   	    2.1437240000 	    0.9796250000 	    0.7307570000
N   	   -1.2566180000 	   -1.8072180000 	    0.2176370000
C   	   -2.3828750000 	   -1.2001920000 	   -0.3749490000
O   	   -3.2829350000 	   -1.7071150000 	   -0.9811650000
H   	   -3.6146520000 	    3.1318710000 	   -0.5414440000
H   	   -1.8391640000 	    2.8405800000 	   -0.5573450000
H   	   -2.7529240000 	    2.6507160000 	    0.9622350000
H   	    0.8610160000 	   -2.0291630000 	    1.6426050000
H   	    0.6149630000 	   -0.4426190000 	    2.4152650000
H   	    2.2576600000 	   -2.2276650000 	   -0.3665870000
H   	    4.0812150000 	   -1.2743940000 	   -1.7442640000
H   	    4.6659880000 	    1.1303480000 	   -1.5404220000
H   	    3.4138190000 	    2.5722940000 	    0.0470500000
H   	    1.5887140000 	    1.6121700000 	    1.4197010000
