24
tauto -501.474950958
C   	   -3.5657950000 	   -1.1861760000 	   -0.1187150000
C   	   -2.0675590000 	   -1.2143280000 	   -0.1896820000
C   	   -1.2146920000 	   -0.2289580000 	    0.1139440000
C   	    0.2620720000 	   -0.3899940000 	    0.0405770000
C   	    0.8978720000 	   -1.6380030000 	    0.0864590000
C   	    2.2777580000 	   -1.7606320000 	    0.0446100000
C   	    3.0680890000 	   -0.6130590000 	   -0.0277380000
C   	    2.4717160000 	    0.6364120000 	   -0.0587300000
C   	    1.0807770000 	    0.7498370000 	   -0.0234520000
O   	    0.5904320000 	    2.0221920000 	   -0.0362340000
C   	   -0.7992660000 	    2.1600910000 	   -0.2951460000
C   	   -1.6231050000 	    1.1680380000 	    0.5138390000
H   	   -3.9306220000 	   -1.9681320000 	    0.5586630000
H   	   -4.0065740000 	   -1.3904650000 	   -1.1022660000
H   	   -3.9629630000 	   -0.2324440000 	    0.2379400000
H   	   -1.6501800000 	   -2.1610490000 	   -0.5323700000
H   	    0.2888350000 	   -2.5331650000 	    0.1841260000
H   	    2.7380570000 	   -2.7438630000 	    0.0850040000
H   	    4.1517390000 	   -0.6941810000 	   -0.0554900000
H   	    3.0578880000 	    1.5491650000 	   -0.1122390000
H   	   -0.9828490000 	    2.0119860000 	   -1.3691820000
H   	   -1.0413420000 	    3.1946000000 	   -0.0388630000
H   	   -2.6857510000 	    1.3550360000 	    0.3374980000
H   	   -1.4268990000 	    1.3355990000 	    1.5812490000
