16
tauto -376.066353955
C   	    1.7396520000 	   -0.3089600000 	    1.2343270000
C   	    1.4744510000 	    0.0178850000 	   -0.2320360000
N   	    0.7112860000 	   -1.0747890000 	   -0.8797220000
N   	   -0.5054540000 	   -1.0779060000 	   -0.6005110000
C   	   -1.1104800000 	    0.0295110000 	    0.0171100000
C   	   -2.5138680000 	   -0.1411610000 	    0.5023190000
N   	   -0.6005280000 	    1.2186880000 	   -0.1280470000
N   	    0.7102330000 	    1.2265300000 	   -0.3974030000
H   	    2.2571740000 	   -1.2704660000 	    1.3079450000
H   	    0.8074300000 	   -0.3753350000 	    1.8028950000
H   	    2.3643620000 	    0.4692360000 	    1.6820230000
H   	    2.4179700000 	    0.1253410000 	   -0.7722780000
H   	   -2.5343980000 	   -0.6394680000 	    1.4784020000
H   	   -3.0884760000 	   -0.7557080000 	   -0.1962270000
H   	   -2.9858820000 	    0.8388190000 	    0.6062530000
H   	    1.0145370000 	    1.9762720000 	   -0.9995530000
