22
tauto -645.673509951
O   	    2.7299730000 	    2.1673490000 	    0.1674920000
C   	    2.2981460000 	    1.0584300000 	    0.0146520000
N   	    1.0264490000 	    0.6759100000 	   -0.3913520000
C   	    0.9639430000 	   -0.7081380000 	   -0.3876360000
C   	   -0.3027320000 	   -1.3993910000 	   -0.7945200000
C   	   -1.5488370000 	   -0.6799140000 	   -0.3268760000
C   	   -1.9588460000 	   -0.7839630000 	    1.0046680000
C   	   -3.0818420000 	   -0.0986120000 	    1.4528460000
C   	   -3.8080610000 	    0.7036020000 	    0.5752840000
C   	   -3.4066330000 	    0.8147950000 	   -0.7513530000
C   	   -2.2816030000 	    0.1254310000 	   -1.1992830000
N   	    2.0493420000 	   -1.3292690000 	   -0.0580250000
C   	    2.9974460000 	   -0.3229100000 	    0.2163010000
O   	    4.1410280000 	   -0.4622180000 	    0.5476540000
H   	    0.2386230000 	    1.2936870000 	   -0.5263010000
H   	   -0.2459020000 	   -2.4201480000 	   -0.4067540000
H   	   -0.2942690000 	   -1.4721810000 	   -1.8900260000
H   	   -1.3928790000 	   -1.4098690000 	    1.6922430000
H   	   -3.3924380000 	   -0.1918270000 	    2.4900890000
H   	   -4.6870200000 	    1.2377260000 	    0.9258560000
H   	   -3.9717520000 	    1.4341450000 	   -1.4428320000
H   	   -1.9787920000 	    0.2049580000 	   -2.2423040000
