6
tauto -169.821107532
N   	    1.1068690000 	   -0.3426130000 	    0.0000000000
C   	    0.0898550000 	    0.4076150000 	    0.0000000000
O   	   -1.1565340000 	   -0.0877100000 	    0.0000000000
H   	    1.9613250000 	    0.2087830000 	   -0.0000010000
H   	    0.0636590000 	    1.5005740000 	    0.0000000000
H   	   -1.0599220000 	   -1.0550800000 	    0.0000000000
