22
tauto -346.448562211
C   	    3.9426680000 	   -0.2277180000 	    0.1035010000
C   	    2.6053890000 	    0.4750850000 	   -0.1132560000
C   	    1.4231970000 	   -0.4690960000 	    0.0641700000
N   	    0.1730670000 	    0.2324580000 	   -0.1916940000
N   	   -0.9181630000 	   -0.6080750000 	   -0.1132470000
C   	   -2.0715900000 	   -0.0679540000 	   -0.0031410000
C   	   -2.2912750000 	    1.4222420000 	    0.0633560000
C   	   -3.2703760000 	   -0.9720510000 	    0.0430700000
H   	    4.7804110000 	    0.4660840000 	   -0.0193310000
H   	    4.0770430000 	   -1.0451620000 	   -0.6142020000
H   	    4.0075030000 	   -0.6558520000 	    1.1106450000
H   	    2.5600170000 	    0.9101930000 	   -1.1187830000
H   	    2.5137030000 	    1.3122280000 	    0.5940920000
H   	    1.4462520000 	   -0.9196500000 	    1.0709690000
H   	    1.4848810000 	   -1.2927680000 	   -0.6550730000
H   	    0.0867600000 	    1.0510020000 	    0.4092750000
H   	   -1.7473770000 	    1.9221450000 	   -0.7478890000
H   	   -1.9250280000 	    1.8455520000 	    1.0098120000
H   	   -3.3525590000 	    1.6713490000 	   -0.0177840000
H   	   -2.9540860000 	   -2.0149040000 	   -0.0296920000
H   	   -3.9601950000 	   -0.7495610000 	   -0.7808540000
H   	   -3.8297310000 	   -0.8343880000 	    0.9772010000
