6
tauto -169.761211139
C   	   -1.1199880000 	    0.1755420000 	    0.0000000000
N   	   -0.0644890000 	   -0.5296150000 	    0.0000000000
O   	    1.0683660000 	    0.2656950000 	    0.0000000000
H   	   -2.0652870000 	   -0.3569220000 	    0.0000020000
H   	   -1.0966160000 	    1.2657600000 	    0.0000000000
H   	    1.7863300000 	   -0.3803450000 	    0.0000010000
