7
tauto -244.901832427
C   	   -1.1576920000 	   -0.6081280000 	    0.0000010000
N   	   -0.0711430000 	    0.1098160000 	   -0.0000110000
O   	    0.0446970000 	    1.3237460000 	    0.0000040000
O   	    1.1634640000 	   -0.5561830000 	    0.0000020000
H   	   -2.0905730000 	   -0.0668230000 	    0.0000110000
H   	   -1.0995780000 	   -1.6866330000 	    0.0000060000
H   	    0.9690130000 	   -1.5069920000 	    0.0000040000
