14
tauto -270.506932166
O   	    2.1292380000 	    0.0000000000 	   -0.0000640000
C   	    0.9217700000 	   -0.0000050000 	    0.0000220000
C   	    0.0298120000 	    1.2340830000 	   -0.1228790000
C   	   -1.3753670000 	    0.7356670000 	    0.2281180000
C   	   -1.3753320000 	   -0.7356900000 	   -0.2282140000
C   	    0.0298230000 	   -1.2340580000 	    0.1230000000
H   	    0.0823460000 	    1.5721060000 	   -1.1669040000
H   	    0.4075560000 	    2.0493980000 	    0.5001020000
H   	   -2.1704300000 	    1.3221110000 	   -0.2413510000
H   	   -1.5285990000 	    0.7856920000 	    1.3134720000
H   	   -1.5284150000 	   -0.7857610000 	   -1.3135840000
H   	   -2.1704280000 	   -1.3221360000 	    0.2411900000
H   	    0.4076410000 	   -2.0494870000 	   -0.4997840000
H   	    0.0821900000 	   -1.5719060000 	    1.1670960000
