16
tauto -267.837325808
C   	    2.0744200000 	   -1.0318650000 	    0.0431240000
C   	    0.9241240000 	   -0.0674140000 	   -0.0112580000
C   	    1.2208540000 	    1.4104870000 	    0.0223390000
N   	   -0.2566910000 	   -0.5494210000 	   -0.0991390000
N   	   -1.3046920000 	    0.3438650000 	   -0.1867340000
C   	   -2.5774630000 	   -0.2970880000 	    0.0948150000
H   	    2.6505230000 	   -0.9041370000 	    0.9683940000
H   	    2.7657880000 	   -0.8640770000 	   -0.7923960000
H   	    1.7024650000 	   -2.0577020000 	   -0.0037830000
H   	    2.2923840000 	    1.6027760000 	   -0.0761830000
H   	    0.8892700000 	    1.8701120000 	    0.9646190000
H   	    0.6933970000 	    1.9221720000 	   -0.7924240000
H   	   -1.1698600000 	    1.1700390000 	    0.3920420000
H   	   -2.7294590000 	   -1.1038510000 	   -0.6260490000
H   	   -3.3753320000 	    0.4406420000 	   -0.0347770000
H   	   -2.6411020000 	   -0.7218070000 	    1.1075510000
