6
tauto -260.949280127
N   	   -0.5166040000 	    1.1637610000 	    0.0002310000
N   	   -0.1103860000 	   -0.0281590000 	   -0.0000110000
O   	   -0.7106930000 	   -1.0809480000 	   -0.0001290000
O   	    1.2560850000 	   -0.1476070000 	   -0.0001050000
H   	   -1.5356490000 	    1.1010850000 	    0.0003000000
H   	    1.5614530000 	    0.7781400000 	    0.0000310000
