19
tauto -436.25424918
C   	    4.0498070000 	    0.5326340000 	    0.2596980000
N   	    3.0382140000 	   -0.3737770000 	   -0.2476560000
N   	    1.7722940000 	    0.1004290000 	   -0.1396440000
C   	    0.8123890000 	   -0.7396140000 	   -0.0856700000
C   	   -0.5912750000 	   -0.2942030000 	   -0.0391310000
N   	   -1.4971850000 	   -1.2750700000 	    0.0548870000
C   	   -2.7833620000 	   -0.9252830000 	    0.1059360000
C   	   -3.2295050000 	    0.3901050000 	    0.0677760000
C   	   -2.2782670000 	    1.4028840000 	   -0.0311500000
C   	   -0.9372720000 	    1.0605630000 	   -0.0864270000
H   	    5.0357150000 	    0.1287420000 	    0.0130130000
H   	    3.9884410000 	    0.6911830000 	    1.3462890000
H   	    3.9321030000 	    1.4971900000 	   -0.2394020000
H   	    3.1492850000 	   -1.3346590000 	    0.0721630000
H   	    0.9679960000 	   -1.8250730000 	   -0.0745770000
H   	   -3.4954930000 	   -1.7459530000 	    0.1813720000
H   	   -4.2915670000 	    0.6118290000 	    0.1136640000
H   	   -2.5814940000 	    2.4464310000 	   -0.0660880000
H   	   -0.1533380000 	    1.8067210000 	   -0.1657330000
