6
tauto -169.761199681
C   	    1.1329950000 	   -0.0388780000 	    0.0000000000
N   	    0.0000000000 	    0.5335270000 	    0.0000000000
O   	   -1.0284170000 	   -0.3928840000 	    0.0000000000
H   	    2.0070020000 	    0.6039430000 	    0.0000000000
H   	    1.2415720000 	   -1.1239280000 	    0.0000000000
H   	   -1.8192060000 	    0.1616370000 	    0.0000000000
