16
tauto -362.820557101
C   	    3.1050820000 	    0.2545710000 	   -0.0328390000
C   	    1.7065240000 	   -0.0689000000 	   -0.5496510000
C   	    0.7616780000 	   -0.5172950000 	    0.5784720000
C   	   -0.6126070000 	   -0.8977070000 	    0.1237240000
N   	   -1.5933570000 	   -0.0518160000 	   -0.0206540000
O   	   -2.7618850000 	   -0.2702530000 	   -0.3181680000
O   	   -1.3140140000 	    1.3112050000 	    0.2413100000
H   	    3.7665090000 	    0.5735490000 	   -0.8443180000
H   	    3.5573270000 	   -0.6232150000 	    0.4427190000
H   	    3.0756950000 	    1.0573880000 	    0.7129590000
H   	    1.7562330000 	   -0.8576280000 	   -1.3099010000
H   	    1.2943420000 	    0.8120980000 	   -1.0654410000
H   	    0.6975580000 	    0.2657610000 	    1.3450730000
H   	    1.2020460000 	   -1.3924680000 	    1.0704210000
H   	   -0.8885020000 	   -1.9160710000 	   -0.1180290000
H   	   -0.4645770000 	    1.4916720000 	   -0.1922720000
