16
tauto -362.835322302
C   	    1.4799030000 	    1.2514640000 	    0.6327840000
C   	    1.1225900000 	    0.0555210000 	   -0.2608960000
C   	    2.2818960000 	   -0.9395970000 	   -0.3452580000
C   	   -0.1055700000 	   -0.6519890000 	    0.2349900000
N   	   -1.3103080000 	   -0.2173600000 	    0.0448730000
O   	   -2.3981050000 	   -0.6979320000 	    0.4056730000
O   	   -1.4064160000 	    0.9738610000 	   -0.6800210000
H   	    2.3659910000 	    1.7660600000 	    0.2443900000
H   	    1.6993700000 	    0.9206330000 	    1.6546330000
H   	    0.6545710000 	    1.9684660000 	    0.6712440000
H   	    0.9113110000 	    0.4361830000 	   -1.2678910000
H   	    2.5176850000 	   -1.3491490000 	    0.6447370000
H   	    3.1826850000 	   -0.4465250000 	   -0.7248230000
H   	    2.0448670000 	   -1.7761530000 	   -1.0111830000
H   	   -0.0660110000 	   -1.5688100000 	    0.8108020000
H   	   -2.3750550000 	    1.0709880000 	   -0.7109450000
