12
tauto -448.595573395
N   	    2.9222270000 	   -0.7935610000 	   -0.8890310000
C   	    1.8765230000 	   -0.4165470000 	   -0.4091800000
C   	    0.7165350000 	    0.0760600000 	    0.0073300000
C   	   -0.5946910000 	   -0.5269290000 	   -0.4852040000
C   	   -1.3244440000 	   -1.2008650000 	    0.6075880000
N   	   -1.8666830000 	   -1.7509450000 	    1.4663230000
C   	   -1.4483030000 	    0.4903090000 	   -1.1289130000
N   	   -2.1004140000 	    1.2878810000 	   -1.6507400000
C   	    0.6995490000 	    1.1541690000 	    0.9458570000
N   	    0.6698000000 	    2.0243980000 	    1.7098780000
H   	    3.4395200000 	   -1.5454790000 	   -0.4370080000
H   	   -0.3650460000 	   -1.2861070000 	   -1.2428650000
