12
tauto -211.279741886
C   	    1.1304750000 	    1.2935470000 	    0.0070850000
C   	    0.3535090000 	    0.0000040000 	   -0.0002690000
C   	    1.1306280000 	   -1.2934770000 	    0.0070750000
C   	   -0.9588790000 	   -0.0000960000 	   -0.0070790000
N   	   -2.1874470000 	   -0.0000240000 	   -0.1225080000
H   	    1.7892380000 	    1.3490790000 	   -0.8687960000
H   	    1.7667420000 	    1.3597050000 	    0.8989310000
H   	    0.4725290000 	    2.1667590000 	   -0.0083420000
H   	    1.7671670000 	   -1.3593580000 	    0.8987480000
H   	    1.7890980000 	   -1.3491240000 	   -0.8690050000
H   	    0.4727370000 	   -2.1667380000 	   -0.0078970000
H   	   -2.6797860000 	   -0.0000310000 	    0.7730450000
