9
tauto -300.234247924
C   	    1.7802760000 	   -0.0659720000 	    0.0000800000
N   	    0.5360760000 	   -0.8118770000 	   -0.0001130000
N   	   -0.5318290000 	   -0.1499280000 	   -0.0000140000
O   	   -1.6515330000 	   -0.6003560000 	    0.0000270000
O   	   -0.5349200000 	    1.2584310000 	    0.0000830000
H   	    2.5848600000 	   -0.8018290000 	    0.0003170000
H   	    1.9030850000 	    0.5555930000 	    0.8997140000
H   	    1.9035090000 	    0.5553760000 	   -0.8996570000
H   	    0.3887880000 	    1.5547230000 	   -0.0008390000
