13
tauto -323.529883948
C   	    2.1613390000 	    0.3230550000 	    0.5620040000
C   	    1.3930220000 	   -0.3790860000 	   -0.5647210000
C   	    0.0557970000 	   -0.8947890000 	   -0.1328950000
N   	   -0.9818380000 	   -0.1322150000 	    0.0080520000
O   	   -2.1369890000 	   -0.4149950000 	    0.3669670000
O   	   -0.7732820000 	    1.2164140000 	   -0.2937540000
H   	    3.1356040000 	    0.6717070000 	    0.2041030000
H   	    2.3301100000 	   -0.3542920000 	    1.4055320000
H   	    1.5989450000 	    1.1887810000 	    0.9238440000
H   	    1.9723360000 	   -1.2309410000 	   -0.9360900000
H   	    1.2644800000 	    0.3111600000 	   -1.4057940000
H   	   -0.1362010000 	   -1.9288490000 	    0.1214600000
H   	   -1.6711810000 	    1.5615000000 	   -0.1414380000
