12
tauto -377.493973955
C   	    2.2169090000 	   -0.3210890000 	    0.0109870000
C   	    0.8082300000 	   -0.8690250000 	   -0.0019460000
C   	   -0.3113280000 	    0.1281860000 	   -0.0048780000
C   	   -1.6668790000 	   -0.3328350000 	    0.0021780000
N   	   -2.7675540000 	   -0.6920030000 	    0.0144580000
C   	   -0.0793410000 	    1.4401130000 	   -0.0011150000
N   	    0.1610500000 	    2.6191160000 	   -0.1210700000
O   	    0.5592940000 	   -2.0516590000 	   -0.0056340000
H   	    2.4115510000 	    0.2047790000 	    0.9527980000
H   	    2.3740370000 	    0.3885700000 	   -0.8085260000
H   	    2.9159640000 	   -1.1528760000 	   -0.0843310000
H   	    0.2640820000 	    3.2109100000 	    0.7000570000
