10
tauto -338.373450489
N   	    1.9800400000 	   -0.4786760000 	   -0.0003290000
C   	    1.3611190000 	    0.7097670000 	   -0.0000280000
C   	    0.0272140000 	    0.9614500000 	    0.0004880000
N   	   -0.9476830000 	   -0.0677100000 	    0.0000760000
O   	   -2.1239460000 	    0.2626610000 	   -0.0005290000
O   	   -0.5734830000 	   -1.2483270000 	    0.0003920000
H   	    2.9832690000 	   -0.5383290000 	   -0.0005350000
H   	    1.4088570000 	   -1.3133940000 	    0.0001050000
H   	    2.0173760000 	    1.5767780000 	   -0.0001330000
H   	   -0.3865650000 	    1.9576690000 	    0.0006760000
