9
tauto -358.211356038
O   	    1.9720710000 	   -0.8122160000 	   -0.0001670000
N   	    0.9315160000 	   -0.1624350000 	    0.0001240000
O   	    1.0868360000 	    1.2135030000 	    0.0000450000
C   	   -0.3031750000 	   -0.5969530000 	    0.0002170000
C   	   -1.4667260000 	    0.2915110000 	    0.0000470000
O   	   -2.5942390000 	   -0.1543400000 	   -0.0001780000
H   	    2.0587940000 	    1.2896200000 	   -0.0005310000
H   	   -0.4109490000 	   -1.6725850000 	    0.0002870000
H   	   -1.2663910000 	    1.3770890000 	    0.0001910000
