25
tauto -514.854084638
C   	    4.7453180000 	   -0.7909970000 	    0.4528280000
C   	    4.0379710000 	    0.5585230000 	    0.5486170000
C   	    3.0034840000 	    0.7725490000 	   -0.5564960000
N   	    1.9551890000 	   -0.2417610000 	   -0.4793760000
N   	    0.8299820000 	    0.2656260000 	   -0.3188930000
N   	   -0.1424170000 	   -0.6497830000 	   -0.2341820000
C   	   -1.4825500000 	   -0.2906180000 	   -0.0771170000
C   	   -2.4436370000 	   -1.3032690000 	   -0.0317830000
C   	   -3.7856980000 	   -0.9807640000 	    0.1268490000
C   	   -4.1852120000 	    0.3471370000 	    0.2412530000
C   	   -3.2212290000 	    1.3508480000 	    0.1945310000
C   	   -1.8751720000 	    1.0457130000 	    0.0368190000
H   	    5.4721130000 	   -0.9156020000 	    1.2622890000
H   	    5.2825880000 	   -0.8835620000 	   -0.4986660000
H   	    4.0234920000 	   -1.6112970000 	    0.5075490000
H   	    4.7718290000 	    1.3723830000 	    0.4923550000
H   	    3.5369460000 	    0.6534580000 	    1.5204130000
H   	    3.4888530000 	    0.6603310000 	   -1.5354410000
H   	    2.5673270000 	    1.7781360000 	   -0.4984180000
H   	    0.1360840000 	   -1.6218360000 	   -0.3237280000
H   	   -2.1373530000 	   -2.3436820000 	   -0.1221360000
H   	   -4.5236140000 	   -1.7782810000 	    0.1601200000
H   	   -5.2350440000 	    0.5965860000 	    0.3659630000
H   	   -3.5179390000 	    2.3930560000 	    0.2832240000
H   	   -1.1242080000 	    1.8270020000 	    0.0006370000
