8
tauto -188.030791003
C   	    1.6870920000 	    0.2509800000 	    0.0006610000
N   	    0.4687660000 	   -0.5339720000 	    0.0192660000
C   	   -0.6751880000 	   -0.1217050000 	    0.0114100000
N   	   -1.8590750000 	    0.1854560000 	   -0.1300460000
H   	    2.3098560000 	   -0.0831620000 	   -0.8335310000
H   	    2.2430660000 	    0.0730820000 	    0.9257080000
H   	    1.5033210000 	    1.3261250000 	   -0.1035780000
H   	   -2.3955010000 	    0.3479150000 	    0.7144350000
