29
tauto -629.348257819
C   	    4.5711590000 	   -0.9979340000 	    1.3766190000
C   	    5.1080070000 	   -0.2038950000 	    0.1891910000
C   	    4.0701300000 	   -0.0271250000 	   -0.9187100000
N   	    2.9698050000 	    0.8104560000 	   -0.4521630000
N   	    1.8768690000 	    0.2130160000 	   -0.4879900000
N   	    0.8618900000 	    0.9640410000 	   -0.0528740000
C   	   -0.4588950000 	    0.4985720000 	   -0.0608590000
C   	   -0.7777700000 	   -0.8055000000 	   -0.4581000000
C   	   -2.0949030000 	   -1.2269970000 	   -0.4478480000
C   	   -1.4785730000 	    1.3530030000 	    0.3419550000
C   	   -2.8067490000 	    0.9274200000 	    0.3534780000
C   	   -3.1220460000 	   -0.3687170000 	   -0.0432330000
O   	   -4.3815140000 	   -0.8909040000 	   -0.0733680000
C   	   -5.4393950000 	   -0.0501190000 	    0.3253220000
H   	    5.3325330000 	   -1.1116000000 	    2.1552660000
H   	    4.2526420000 	   -2.0006130000 	    1.0671930000
H   	    3.7042790000 	   -0.4980610000 	    1.8216340000
H   	    5.9853540000 	   -0.7072090000 	   -0.2358720000
H   	    5.4400150000 	    0.7877980000 	    0.5204370000
H   	    3.6948660000 	   -1.0014680000 	   -1.2618980000
H   	    4.5279770000 	    0.4880180000 	   -1.7723970000
H   	    1.0820570000 	    1.9172500000 	    0.2177490000
H   	    0.0140500000 	   -1.4761510000 	   -0.7732060000
H   	   -2.3561670000 	   -2.2358180000 	   -0.7539360000
H   	   -1.2435740000 	    2.3691940000 	    0.6524590000
H   	   -3.5756510000 	    1.6224120000 	    0.6739360000
H   	   -6.3516940000 	   -0.6411300000 	    0.2290560000
H   	   -5.5139800000 	    0.8369100000 	   -0.3182080000
H   	   -5.3263240000 	    0.2728620000 	    1.3690330000
