20
tauto -349.112987342
O   	   -2.5256270000 	   -0.1807620000 	   -0.3094560000
C   	   -1.3987540000 	   -0.0252230000 	    0.1147790000
C   	   -0.7857920000 	    1.3630440000 	    0.1922070000
C   	    0.6256070000 	    1.5255680000 	   -0.3934540000
C   	    1.7086220000 	    0.7264690000 	    0.3427160000
C   	    1.8800480000 	   -0.7287020000 	   -0.1204080000
C   	    0.5824560000 	   -1.4938780000 	   -0.4163370000
C   	   -0.5723200000 	   -1.2186120000 	    0.5657650000
H   	   -0.7512790000 	    1.6413270000 	    1.2567110000
H   	   -1.4902000000 	    2.0419490000 	   -0.2974690000
H   	    0.8712320000 	    2.5925130000 	   -0.3401160000
H   	    0.6228810000 	    1.2697590000 	   -1.4618150000
H   	    1.4862360000 	    0.7505150000 	    1.4189320000
H   	    2.6748470000 	    1.2325960000 	    0.2312920000
H   	    2.4487110000 	   -1.2670520000 	    0.6488860000
H   	    2.5012050000 	   -0.7479840000 	   -1.0251930000
H   	    0.8021260000 	   -2.5672790000 	   -0.4133900000
H   	    0.2358230000 	   -1.2689070000 	   -1.4335970000
H   	   -0.1783780000 	   -1.0535200000 	    1.5777370000
H   	   -1.2573900000 	   -2.0698200000 	    0.6020690000
