9
tauto -358.231199715
O   	   -2.0834700000 	    0.2870650000 	   -0.0000880000
N   	   -0.9161490000 	   -0.0490680000 	    0.0000270000
C   	    0.0796540000 	    0.9693770000 	    0.0000720000
C   	    1.3970650000 	    0.6718670000 	    0.0000000000
O   	    1.9488130000 	   -0.5237840000 	   -0.0000610000
O   	   -0.5482820000 	   -1.2366720000 	    0.0000630000
H   	   -0.3110830000 	    1.9750900000 	    0.0001030000
H   	    2.1228340000 	    1.4809060000 	   -0.0000330000
H   	    1.2044930000 	   -1.1728510000 	   -0.0000020000
