10
tauto -338.347478598
N   	    1.8824080000 	    0.5440470000 	    0.0001570000
C   	    1.4471470000 	   -0.6686580000 	   -0.0000990000
C   	    0.0527160000 	   -0.9830410000 	   -0.0000550000
N   	   -0.8965620000 	   -0.0385700000 	    0.0000580000
O   	   -2.0926710000 	   -0.2579820000 	    0.0001210000
O   	   -0.5406220000 	    1.2577050000 	   -0.0001170000
H   	    2.8944270000 	    0.6189870000 	    0.0001660000
H   	    2.1160920000 	   -1.5339560000 	   -0.0002440000
H   	   -0.3304650000 	   -1.9916910000 	   -0.0000920000
H   	    0.4861950000 	    1.2807390000 	   -0.0004390000
