15
tauto -562.257296975
O   	    0.3631270000 	    2.5572270000 	    0.0000630000
C   	   -0.1580710000 	    1.3365660000 	   -0.0000060000
N   	    0.7557400000 	    0.2967890000 	   -0.0000490000
N   	    2.1111050000 	    0.4318250000 	   -0.0000080000
C   	    2.4909820000 	   -0.8293030000 	   -0.0000100000
N   	    1.4990890000 	   -1.7653260000 	    0.0001140000
C   	    0.4186280000 	   -1.0134590000 	   -0.0000420000
N   	   -0.9005530000 	   -1.3296540000 	   -0.0001050000
C   	   -1.4729230000 	    1.0283550000 	   -0.0000490000
C   	   -1.9307940000 	   -0.3594640000 	   -0.0002120000
O   	   -3.0898570000 	   -0.7189960000 	    0.0001850000
H   	    1.3350740000 	    2.4740060000 	    0.0000680000
H   	    3.5392590000 	   -1.0971600000 	    0.0000930000
H   	   -1.1815710000 	   -2.3010170000 	    0.0000860000
H   	   -2.2235230000 	    1.8067180000 	    0.0000230000
