16
tauto -383.794587533
O   	    2.3572150000 	   -1.0192930000 	    0.0086750000
C   	    1.1554550000 	   -0.3987390000 	    0.0127820000
C   	    1.1600200000 	    1.1007350000 	    0.1462440000
C   	   -0.1534610000 	    1.7069090000 	   -0.3472610000
C   	   -1.3494910000 	    0.9811600000 	    0.2642700000
C   	    0.0321000000 	   -1.1318050000 	   -0.0721220000
C   	   -1.3000290000 	   -0.5215310000 	    0.0173110000
O   	   -2.3207930000 	   -1.1813560000 	   -0.0621700000
H   	    3.0628980000 	   -0.3602990000 	    0.0202670000
H   	    2.0060400000 	    1.5129910000 	   -0.4213750000
H   	    1.3318390000 	    1.3597500000 	    1.2014340000
H   	   -0.1956170000 	    1.6192190000 	   -1.4399230000
H   	   -0.1850470000 	    2.7753210000 	   -0.1091230000
H   	   -2.3002950000 	    1.3548460000 	   -0.1255630000
H   	   -1.3651420000 	    1.1335960000 	    1.3533770000
H   	    0.0863830000 	   -2.2106150000 	   -0.1784770000
