11
tauto -173.206703555
C   	    1.4214500000 	    0.0326050000 	    0.0000000000
C   	   -0.0916470000 	    0.0694620000 	    0.0000010000
N   	   -0.6930130000 	   -1.1715460000 	    0.0000040000
C   	   -0.7710990000 	    1.2249480000 	   -0.0000010000
H   	    1.8072480000 	   -0.9921550000 	   -0.0000020000
H   	    1.8203320000 	    0.5386820000 	    0.8838970000
H   	    1.8203310000 	    0.5386850000 	   -0.8838960000
H   	   -0.1519760000 	   -2.0163510000 	   -0.0000140000
H   	   -1.6948010000 	   -1.2559350000 	   -0.0000100000
H   	   -0.2447390000 	    2.1730080000 	   -0.0000020000
H   	   -1.8575210000 	    1.2527960000 	    0.0000000000
