18
tauto -344.058460833
N   	    2.4271800000 	   -0.9318750000 	   -0.0660230000
C   	    1.1680880000 	   -0.3719690000 	    0.0199600000
C   	    1.1480590000 	    1.1339850000 	    0.1179870000
C   	   -0.1802500000 	    1.7149150000 	   -0.3635000000
C   	   -1.3513620000 	    0.9907310000 	    0.2972470000
C   	    0.0324680000 	   -1.1013370000 	   -0.0272570000
C   	   -1.3016040000 	   -0.4996890000 	    0.0369080000
N   	   -2.4080790000 	   -1.1317880000 	   -0.0798690000
H   	    3.1905600000 	   -0.3880950000 	    0.3085180000
H   	    2.4989370000 	   -1.9181320000 	    0.1395260000
H   	    1.9833970000 	    1.5392910000 	   -0.4667740000
H   	    1.3265990000 	    1.4198540000 	    1.1654200000
H   	   -0.2479360000 	    1.6004470000 	   -1.4525780000
H   	   -0.2190100000 	    2.7886090000 	   -0.1486850000
H   	   -2.3170500000 	    1.3682250000 	   -0.0492570000
H   	   -1.3106720000 	    1.1503680000 	    1.3846940000
H   	    0.0907310000 	   -2.1861020000 	   -0.1229520000
H   	   -2.2216550000 	   -2.1286370000 	   -0.2247370000
