23
tauto -574.736582224
C   	   -4.1474610000 	    0.1230380000 	    0.9257260000
C   	   -3.6182520000 	   -0.3566070000 	   -0.4129160000
O   	   -2.3144280000 	   -0.9446950000 	   -0.2817320000
C   	   -1.2765310000 	   -0.0990080000 	   -0.2351630000
C   	   -0.0048930000 	   -0.7465940000 	   -0.1025530000
C   	    1.1173580000 	    0.0366420000 	   -0.0495590000
O   	    1.1017570000 	    1.3532730000 	   -0.1119370000
O   	    2.3135680000 	   -0.5218340000 	    0.0706590000
C   	    3.4648560000 	    0.3394820000 	    0.1149500000
C   	    4.6790060000 	   -0.5592130000 	    0.1970780000
O   	   -1.4336420000 	    1.1309940000 	   -0.3078660000
H   	   -5.1713540000 	    0.4948290000 	    0.8112540000
H   	   -3.5257720000 	    0.9354540000 	    1.3107570000
H   	   -4.1558370000 	   -0.6950840000 	    1.6525400000
H   	   -3.5703670000 	    0.4626360000 	   -1.1348270000
H   	   -4.2357610000 	   -1.1606090000 	   -0.8208490000
H   	    0.0746430000 	   -1.8224750000 	   -0.0480130000
H   	    0.1322270000 	    1.6023980000 	   -0.2036410000
H   	    3.3863020000 	    0.9988910000 	    0.9851450000
H   	    3.4815790000 	    0.9640040000 	   -0.7835260000
H   	    4.6399530000 	   -1.1814240000 	    1.0958220000
H   	    5.5887830000 	    0.0480920000 	    0.2335540000
H   	    4.7330630000 	   -1.2150430000 	   -0.6765870000
