23
tauto -724.707390344
C   	    1.9994870000 	   -2.2716240000 	    0.7865750000
C   	    2.0746800000 	   -0.8795560000 	    0.2241200000
O   	    3.3163250000 	   -0.3713270000 	    0.1420930000
C   	    1.0121270000 	   -0.1124870000 	   -0.1364140000
C   	   -0.3873380000 	   -0.5734590000 	   -0.1593730000
C   	   -0.7870750000 	   -1.8775300000 	   -0.4780910000
C   	   -2.1306340000 	   -2.2320350000 	   -0.4587410000
C   	   -3.1111980000 	   -1.2947770000 	   -0.1386880000
C   	   -2.7359720000 	    0.0128240000 	    0.1301430000
C   	   -1.3890340000 	    0.3696990000 	    0.1031150000
C   	   -1.0397880000 	    1.7936990000 	    0.3190950000
O   	    0.2159030000 	    2.1834710000 	   -0.0625780000
O   	   -1.7966970000 	    2.6246490000 	    0.7426030000
C   	    1.2405750000 	    1.3199040000 	   -0.4349180000
O   	    2.2248690000 	    1.8142570000 	   -0.9021540000
H   	    2.7203910000 	   -2.3656140000 	    1.6082610000
H   	    2.2594160000 	   -3.0197280000 	    0.0284020000
H   	    1.0106780000 	   -2.5036790000 	    1.1820100000
H   	    3.9437280000 	   -0.9868350000 	    0.5425140000
H   	   -0.0494540000 	   -2.6137080000 	   -0.7814920000
H   	   -2.4152450000 	   -3.2502210000 	   -0.7118660000
H   	   -4.1593410000 	   -1.5790010000 	   -0.1236020000
H   	   -3.4683470000 	    0.7824430000 	    0.3551060000
