15
tauto -457.794658015
C   	   -2.8420120000 	   -0.3797210000 	    0.0001340000
C   	   -1.3547580000 	   -0.1387200000 	   -0.0000090000
C   	   -0.4636960000 	   -1.2564710000 	    0.0001640000
C   	    0.8707690000 	   -1.0015990000 	    0.0000680000
O   	    1.8524710000 	   -1.9074100000 	   -0.0000740000
O   	    1.3821810000 	    0.2180420000 	    0.0001450000
C   	   -0.8521330000 	    1.1256290000 	   -0.0001060000
C   	    0.5652640000 	    1.3831740000 	    0.0006400000
O   	    1.1417790000 	    2.4357080000 	   -0.0007730000
H   	   -3.0794560000 	   -1.4470100000 	   -0.0050270000
H   	   -3.3049010000 	    0.0781250000 	   -0.8797980000
H   	   -3.3030520000 	    0.0690510000 	    0.8857280000
H   	   -0.8355370000 	   -2.2754500000 	    0.0001380000
H   	    1.4614880000 	   -2.7914770000 	   -0.0000980000
H   	   -1.4905980000 	    2.0022770000 	   -0.0006820000
