23
tauto -649.72527862
C   	   -3.1604140000 	   -1.6453180000 	   -0.3425280000
C   	   -1.6551850000 	   -1.6901690000 	   -0.5761730000
C   	   -0.9203970000 	   -0.4012900000 	   -0.3287600000
C   	    0.5659600000 	   -0.4368860000 	   -0.5475050000
C   	    1.2787400000 	   -1.2553090000 	    0.5700030000
C   	    2.6716750000 	   -1.7323970000 	    0.2573440000
O   	    0.7051010000 	   -1.4911190000 	    1.6056100000
C   	    1.2348950000 	    0.9270990000 	   -0.6163130000
O   	    0.5911780000 	    1.9854790000 	   -0.0607140000
O   	    2.3258870000 	    1.0886860000 	   -1.0889810000
C   	   -1.5007550000 	    0.7291640000 	    0.0762830000
C   	   -0.7464960000 	    1.9633160000 	    0.3286820000
O   	   -1.1947080000 	    2.9585240000 	    0.8177280000
H   	   -3.6036900000 	   -2.6228500000 	   -0.5524540000
H   	   -3.6464670000 	   -0.9107330000 	   -0.9933440000
H   	   -3.3917020000 	   -1.3903860000 	    0.6967560000
H   	   -1.4449510000 	   -2.0029580000 	   -1.6092890000
H   	   -1.2027600000 	   -2.4556850000 	    0.0675880000
H   	    0.8055710000 	   -0.9230720000 	   -1.5016090000
H   	    2.6114590000 	   -2.5397070000 	   -0.4829910000
H   	    3.1389710000 	   -2.1137850000 	    1.1664530000
H   	    3.2685170000 	   -0.9302700000 	   -0.1856710000
H   	   -2.5627540000 	    0.8076230000 	    0.2792210000
