20
tauto -685.365231468
O   	    2.8641450000 	   -1.0017040000 	   -0.0000280000
C   	    1.5192970000 	   -1.0665540000 	    0.0000210000
C   	    0.8864250000 	   -2.3666370000 	    0.0000630000
C   	   -0.4542930000 	   -2.5217260000 	    0.0000630000
C   	   -1.3356490000 	   -1.3623520000 	    0.0000890000
O   	   -2.5840650000 	   -1.4991040000 	   -0.0001100000
C   	    0.7497350000 	    0.0704080000 	   -0.0000240000
C   	    1.3490470000 	    1.4247720000 	   -0.0001370000
C   	    0.3929860000 	    2.5669090000 	   -0.0000330000
C   	   -0.9356280000 	    2.3992130000 	    0.0000030000
O   	    2.5488980000 	    1.6484100000 	    0.0000010000
C   	   -0.6913850000 	   -0.0700300000 	   -0.0000050000
C   	   -1.5051610000 	    1.0591630000 	   -0.0000330000
O   	   -2.8124270000 	    0.9862270000 	    0.0000970000
H   	    3.2249980000 	   -1.8981620000 	   -0.0000330000
H   	    1.5317060000 	   -3.2455210000 	    0.0000730000
H   	   -0.9218100000 	   -3.5014840000 	    0.0000680000
H   	    0.8516360000 	    3.5515460000 	   -0.0000500000
H   	   -1.6348190000 	    3.2306680000 	    0.0000420000
H   	   -3.0363630000 	   -0.0066680000 	    0.0001800000
