17
tauto -496.863484158
O   	    1.8159630000 	   -2.2334020000 	   -0.0001080000
C   	    1.3477200000 	   -0.9782970000 	    0.0000330000
C   	   -0.1094500000 	   -0.6556440000 	    0.0000380000
C   	   -0.2204000000 	    0.7361110000 	    0.0000850000
C   	   -1.4449910000 	    1.3622080000 	    0.0000520000
C   	   -2.5939230000 	    0.5565110000 	    0.0000170000
C   	   -2.4871700000 	   -0.8284830000 	   -0.0000570000
C   	   -1.2326450000 	   -1.4577050000 	   -0.0000800000
C   	    2.0938630000 	    0.1436500000 	   -0.0000670000
C   	    1.1809770000 	    1.3088220000 	    0.0000080000
O   	    1.4584650000 	    2.4883200000 	   -0.0000310000
H   	    1.0780580000 	   -2.8571010000 	    0.0013310000
H   	   -1.5084130000 	    2.4471610000 	    0.0000500000
H   	   -3.5774500000 	    1.0184150000 	    0.0000190000
H   	   -3.3881300000 	   -1.4362240000 	   -0.0001300000
H   	   -1.1763290000 	   -2.5455830000 	   -0.0002720000
H   	    3.1729570000 	    0.2109550000 	   -0.0000610000
