14
tauto -490.85247278
N   	   -3.4743550000 	   -0.5443270000 	   -0.0000360000
C   	   -2.3141460000 	   -0.5373920000 	    0.0000950000
C   	   -0.8895480000 	   -0.4245220000 	    0.0000190000
C   	   -0.2986250000 	    0.8576100000 	   -0.0002590000
O   	   -1.0332860000 	    1.9753150000 	    0.0001230000
N   	    1.0090800000 	    1.0489650000 	    0.0000150000
C   	   -0.0381650000 	   -1.5329770000 	   -0.0000150000
C   	    1.3269720000 	   -1.3425350000 	   -0.0000130000
C   	    1.7939860000 	   -0.0156410000 	    0.0002630000
O   	    3.1063230000 	    0.2691980000 	   -0.0001960000
H   	   -1.9775190000 	    1.7530470000 	   -0.0003320000
H   	   -0.4613900000 	   -2.5332020000 	   -0.0000300000
H   	    2.0146000000 	   -2.1828730000 	   -0.0003120000
H   	    3.6141030000 	   -0.5528000000 	    0.0008650000
