19
tauto -423.11701105
C   	    2.5396050000 	    0.4296900000 	    0.0373090000
C   	    1.3492050000 	   -0.4892630000 	   -0.0668960000
C   	    0.1275250000 	   -0.0972250000 	    0.7720600000
C   	   -0.9306580000 	   -1.2000960000 	    0.8450980000
C   	   -1.8476730000 	   -0.9392230000 	   -0.3633490000
C   	   -1.9307680000 	    0.5864420000 	   -0.4486210000
C   	   -0.5813170000 	    1.0726890000 	    0.0574330000
O   	   -0.1208090000 	    2.1807540000 	   -0.0806360000
O   	    1.3318730000 	   -1.4723130000 	   -0.7751130000
H   	    2.9914290000 	    0.3268060000 	    1.0313880000
H   	    2.2165020000 	    1.4709790000 	   -0.0675410000
H   	    3.2780310000 	    0.1711240000 	   -0.7234960000
H   	    0.4802970000 	    0.2651730000 	    1.7448100000
H   	   -1.4975080000 	   -1.1063300000 	    1.7790700000
H   	   -0.4815730000 	   -2.1954910000 	    0.8119070000
H   	   -2.8268510000 	   -1.4143720000 	   -0.2573360000
H   	   -1.3725490000 	   -1.3420040000 	   -1.2641340000
H   	   -2.6950560000 	    0.9827290000 	    0.2344100000
H   	   -2.1367540000 	    0.9957690000 	   -1.4412850000
