19
tauto -626.475200535
C   	   -2.8805180000 	   -1.1774260000 	   -0.0001000000
C   	   -2.0530740000 	    0.0789800000 	   -0.0000910000
C   	   -0.5936470000 	    0.0217490000 	   -0.0000250000
C   	    0.1122910000 	   -1.2390690000 	    0.0000090000
N   	    1.5252430000 	   -1.1227110000 	   -0.0001520000
C   	    2.2146690000 	    0.0472070000 	   -0.0000150000
O   	    3.5542330000 	    0.0038280000 	    0.0002140000
C   	    1.5617130000 	    1.2416400000 	    0.0000740000
O   	   -0.3483540000 	   -2.3718120000 	    0.0002430000
C   	    0.1446240000 	    1.2266370000 	    0.0000860000
O   	   -0.4465630000 	    2.4018340000 	    0.0001100000
O   	   -2.6380820000 	    1.1748680000 	   -0.0001100000
H   	   -3.9333970000 	   -0.8898180000 	   -0.0005770000
H   	   -2.6464910000 	   -1.7938790000 	    0.8719470000
H   	   -2.6457650000 	   -1.7944470000 	   -0.8715420000
H   	    1.9925760000 	   -2.0207480000 	    0.0010160000
H   	    3.8797320000 	   -0.9056300000 	   -0.0029280000
H   	    2.1050440000 	    2.1764860000 	   -0.0001910000
H   	   -1.4346140000 	    2.2189510000 	    0.0000480000
