13
tauto -344.486868742
O   	   -2.3295960000 	   -0.6353420000 	   -0.0002680000
C   	   -1.0480110000 	   -0.2353550000 	    0.0001940000
C   	   -0.6928210000 	    1.2308480000 	   -0.0003100000
C   	    0.8408490000 	    1.2264440000 	    0.0002630000
C   	    0.0136250000 	   -1.0574200000 	    0.0002960000
C   	    1.2430280000 	   -0.2579110000 	   -0.0000060000
O   	    2.3891570000 	   -0.6538890000 	   -0.0002620000
H   	   -2.9098240000 	    0.1372110000 	    0.0011300000
H   	   -1.1175470000 	    1.7255430000 	    0.8827040000
H   	   -1.1172760000 	    1.7250140000 	   -0.8837260000
H   	    1.2690470000 	    1.7126030000 	    0.8814930000
H   	    1.2696480000 	    1.7133000000 	   -0.8802630000
H   	   -0.0105600000 	   -2.1394520000 	    0.0002770000
