13
tauto -398.629447963
O   	    2.2435660000 	   -1.0937490000 	    0.0000100000
C   	    1.1322180000 	   -0.3249990000 	   -0.0000330000
C   	    1.2019180000 	    1.0730430000 	    0.0001020000
C   	   -0.0000020000 	    1.7660440000 	    0.0000040000
C   	   -1.2019210000 	    1.0730410000 	   -0.0001090000
C   	   -1.1322210000 	   -0.3250030000 	   -0.0000150000
O   	   -2.2435590000 	   -1.0937500000 	    0.0000230000
N   	    0.0000000000 	   -1.0100200000 	   -0.0000380000
H   	    3.0197750000 	   -0.5194730000 	   -0.0002570000
H   	    2.1565180000 	    1.5915760000 	    0.0002880000
H   	   -0.0000010000 	    2.8531880000 	    0.0000250000
H   	   -2.1565290000 	    1.5915700000 	   -0.0002830000
H   	   -3.0197750000 	   -0.5194860000 	    0.0005430000
