23
tauto -686.815070137
C   	    4.0093950000 	   -1.2646590000 	    0.1019250000
C   	    3.2671250000 	    0.0518940000 	    0.1599320000
O   	    1.8974900000 	   -0.2286810000 	   -0.1624200000
C   	    0.9648260000 	    0.7016870000 	   -0.0294250000
O   	    1.3154420000 	    1.9599920000 	    0.2042410000
C   	   -0.3507510000 	    0.3514250000 	   -0.1268130000
C   	   -0.8679750000 	   -0.9956550000 	   -0.2841520000
C   	   -2.3896850000 	   -0.8291620000 	   -0.3379060000
C   	   -3.0910420000 	   -1.6101010000 	    0.7572840000
O   	   -2.6372880000 	    0.5741120000 	   -0.2001030000
O   	   -0.2995940000 	   -2.0677550000 	   -0.3476910000
C   	   -1.4789060000 	    1.2912790000 	   -0.0766800000
O   	   -1.4890140000 	    2.4875430000 	    0.0461310000
H   	    5.0676460000 	   -1.1044060000 	    0.3282180000
H   	    3.9230630000 	   -1.7048470000 	   -0.8945220000
H   	    3.5918260000 	   -1.9662200000 	    0.8280810000
H   	    3.6811280000 	    0.7570400000 	   -0.5754510000
H   	    3.3235320000 	    0.4961970000 	    1.1616040000
H   	    2.2652600000 	    2.0964510000 	    0.0864760000
H   	   -2.7481560000 	   -1.1401030000 	   -1.3267880000
H   	   -2.7524150000 	   -1.2694920000 	    1.7410700000
H   	   -2.8521020000 	   -2.6721770000 	    0.6507880000
H   	   -4.1740010000 	   -1.4743890000 	    0.6942890000
