19
tauto -572.340325956
C   	   -2.9101780000 	   -0.3805780000 	    0.7213160000
C   	   -1.9012400000 	   -0.0629850000 	   -0.3668160000
C   	   -0.6313230000 	   -0.8904000000 	   -0.2469410000
C   	    0.4475160000 	    0.0395980000 	   -0.0874580000
C   	    1.7485690000 	   -0.3709730000 	    0.0684300000
C   	    2.9162260000 	    0.5338250000 	    0.2462670000
O   	    2.0341720000 	   -1.6555800000 	    0.0679820000
O   	   -0.5651180000 	   -2.1198030000 	   -0.2661830000
O   	   -1.4603480000 	    1.2998780000 	   -0.2712280000
C   	   -0.1062640000 	    1.3988720000 	   -0.1073850000
O   	    0.4411840000 	    2.4665200000 	   -0.0055150000
H   	   -3.2062170000 	   -1.4309830000 	    0.6463040000
H   	   -3.7950400000 	    0.2520260000 	    0.6163100000
H   	   -2.4705450000 	   -0.2071170000 	    1.7083920000
H   	   -2.3399270000 	   -0.2064670000 	   -1.3613450000
H   	    2.5982820000 	    1.5767100000 	    0.2187740000
H   	    3.6472930000 	    0.3367780000 	   -0.5444550000
H   	    3.4001200000 	    0.3108990000 	    1.2028730000
H   	    1.1870860000 	   -2.1641220000 	   -0.0517860000
