13
tauto -493.691016908
O   	   -2.6551120000 	   -0.3734090000 	    0.0001880000
C   	   -1.4596820000 	   -0.9489590000 	   -0.0002980000
C   	   -0.3104610000 	   -0.2503730000 	   -0.0002250000
C   	   -0.0749910000 	    1.1933460000 	   -0.0001430000
C   	    1.4495490000 	    1.3287520000 	    0.0002870000
O   	    1.9820610000 	    0.0029150000 	   -0.0001260000
O   	   -0.8561860000 	    2.1167200000 	   -0.0001400000
C   	    0.9955230000 	   -0.9354490000 	    0.0000320000
O   	    1.2257800000 	   -2.1162250000 	    0.0000300000
H   	   -3.3489260000 	   -1.0452950000 	    0.0007190000
H   	   -1.4134520000 	   -2.0395920000 	    0.0003580000
H   	    1.7948610000 	    1.8600550000 	    0.8923540000
H   	    1.7955430000 	    1.8609240000 	   -0.8909710000
