16
tauto -533.008017662
C   	    2.4427100000 	    0.9443640000 	    0.0001790000
C   	    1.4660960000 	   -0.1884630000 	   -0.0000480000
O   	    1.9743010000 	   -1.4210190000 	   -0.0001090000
C   	    0.1148220000 	   -0.0492810000 	   -0.0000220000
C   	   -0.8734210000 	   -1.1292360000 	    0.0000090000
C   	   -2.2265240000 	   -0.4213540000 	    0.0000490000
O   	   -1.9524920000 	    0.9780150000 	    0.0001090000
O   	   -0.7276360000 	   -2.3311690000 	   -0.0000030000
C   	   -0.6156820000 	    1.2335500000 	   -0.0000280000
O   	   -0.2024200000 	    2.3668720000 	   -0.0001990000
H   	    3.0826960000 	    0.8779030000 	    0.8885890000
H   	    1.9215510000 	    1.9018380000 	   -0.0001690000
H   	    3.0835930000 	    0.8776490000 	   -0.8875510000
H   	    2.9408590000 	   -1.3746840000 	   -0.0001330000
H   	   -2.8053880000 	   -0.6809100000 	    0.8917160000
H   	   -2.8053530000 	   -0.6808620000 	   -0.8916600000
