17
tauto -513.150934242
C   	    2.4328860000 	    0.9738120000 	   -0.0001610000
C   	    1.4713020000 	   -0.1730090000 	   -0.0000750000
O   	    2.0034560000 	   -1.4002010000 	    0.0000530000
C   	    0.1218780000 	   -0.0455310000 	   -0.0001690000
C   	   -0.8514240000 	   -1.1472780000 	    0.0000390000
C   	   -2.2461160000 	   -0.5032160000 	    0.0002210000
N   	   -1.9540460000 	    0.9111090000 	   -0.0011710000
O   	   -0.6655070000 	   -2.3440250000 	    0.0001970000
C   	   -0.6258010000 	    1.2405150000 	   -0.0001320000
O   	   -0.2002810000 	    2.3861470000 	    0.0006660000
H   	    3.0752150000 	    0.9168590000 	    0.8874880000
H   	    1.8934520000 	    1.9218800000 	    0.0005860000
H   	    3.0741580000 	    0.9176840000 	   -0.8886220000
H   	    2.9681710000 	   -1.3302410000 	    0.0000110000
H   	   -2.7997390000 	   -0.8247500000 	    0.8905610000
H   	   -2.8006700000 	   -0.8262230000 	   -0.8889810000
H   	   -2.6499610000 	    1.6398950000 	    0.0014820000
