15
tauto -494.904956515
C   	    2.3571890000 	   -0.7011790000 	    0.5867150000
C   	    1.2667250000 	   -0.4020930000 	   -0.4271130000
C   	    0.5545340000 	    0.9242510000 	   -0.1519180000
C   	   -0.7777240000 	    0.5537530000 	    0.4738140000
O   	   -1.8401080000 	    1.3896420000 	    0.1583560000
O   	    1.0008010000 	    2.0145850000 	   -0.3826540000
O   	    0.2262240000 	   -1.4033990000 	   -0.3750190000
C   	   -0.9606600000 	   -0.8719810000 	   -0.0206060000
O   	   -2.0082310000 	   -1.4523910000 	   -0.0928770000
H   	    3.1275490000 	    0.0733210000 	    0.5288410000
H   	    2.8125090000 	   -1.6726490000 	    0.3781650000
H   	    1.9517850000 	   -0.7189560000 	    1.6038030000
H   	    1.6674660000 	   -0.4007640000 	   -1.4454670000
H   	   -0.5992490000 	    0.4894050000 	    1.5652910000
H   	   -2.6299390000 	    0.8256430000 	    0.1415670000
