60
tauto -1675.91747405
O   	   -2.4035520000 	   -2.1877160000 	   -2.1223170000
C   	   -2.0681480000 	   -1.6693700000 	   -1.0819950000
C   	   -0.7902860000 	   -1.9371590000 	   -0.3079300000
C   	    0.4745850000 	   -1.7020940000 	   -1.1230290000
C   	    1.7197440000 	   -2.2411700000 	   -0.4480590000
N   	    2.6805860000 	   -1.2289300000 	   -0.4709860000
C   	    3.5858260000 	   -1.1204620000 	    0.6400270000
C   	    4.6248980000 	   -2.0396730000 	    0.7264720000
C   	    5.4997970000 	   -1.9779830000 	    1.8060290000
C   	    5.3451700000 	   -0.9926550000 	    2.7761790000
C   	    4.3010810000 	   -0.0767240000 	    2.6754220000
C   	    3.4077440000 	   -0.1409960000 	    1.6124620000
N   	    2.0790030000 	   -0.0279000000 	   -0.9304940000
C   	    2.9040170000 	    1.0420350000 	   -1.3744720000
C   	    4.2181960000 	    0.8006810000 	   -1.7732920000
C   	    5.0041030000 	    1.8617200000 	   -2.2076410000
C   	    4.4863430000 	    3.1523310000 	   -2.2548200000
C   	    3.1733930000 	    3.3800740000 	   -1.8548220000
C   	    2.3775290000 	    2.3336330000 	   -1.4028360000
O   	    1.8668790000 	   -3.3304180000 	    0.0480450000
C   	    0.7756340000 	   -0.2295610000 	   -1.3154750000
O   	    0.0047740000 	    0.6095960000 	   -1.7369240000
C   	   -0.8678540000 	   -0.9754370000 	    0.8591000000
O   	    0.0324650000 	   -0.6797610000 	    1.6119590000
N   	   -2.8090520000 	   -0.7712810000 	   -0.3373550000
C   	   -4.2263820000 	   -0.6592180000 	   -0.3780470000
C   	   -4.8697200000 	   -0.6472840000 	   -1.6158670000
C   	   -6.2559340000 	   -0.5516300000 	   -1.6590250000
C   	   -6.9984270000 	   -0.4476110000 	   -0.4868520000
C   	   -6.3442800000 	   -0.4473800000 	    0.7408160000
C   	   -4.9598930000 	   -0.5568620000 	    0.8037250000
N   	   -2.1261510000 	   -0.3854820000 	    0.8432200000
C   	   -2.2336230000 	    0.9953370000 	    1.2311760000
C   	   -2.1721170000 	    1.3051310000 	    2.5844320000
C   	   -2.2387650000 	    2.6373320000 	    2.9798180000
C   	   -2.3828410000 	    3.6431560000 	    2.0292080000
C   	   -2.4447790000 	    3.3174500000 	    0.6765090000
C   	   -2.3612720000 	    1.9914450000 	    0.2673350000
H   	   -0.8013860000 	   -2.9788070000 	    0.0365020000
H   	    0.3454440000 	   -2.1687820000 	   -2.1082150000
H   	    4.7326260000 	   -2.7989380000 	   -0.0420610000
H   	    6.3085270000 	   -2.6996790000 	    1.8825540000
H   	    6.0370910000 	   -0.9394500000 	    3.6124990000
H   	    4.1708880000 	    0.6877590000 	    3.4365760000
H   	    2.5722050000 	    0.5489030000 	    1.5408210000
H   	    4.6221770000 	   -0.2060470000 	   -1.7403910000
H   	    6.0293400000 	    1.6724940000 	   -2.5142020000
H   	    5.1052660000 	    3.9770830000 	   -2.5973350000
H   	    2.7602060000 	    4.3847750000 	   -1.8841440000
H   	    1.3545920000 	    2.5041440000 	   -1.0885840000
H   	   -4.2878370000 	   -0.7284070000 	   -2.5259590000
H   	   -6.7561770000 	   -0.5493280000 	   -2.6237500000
H   	   -8.0807420000 	   -0.3623110000 	   -0.5302370000
H   	   -6.9122850000 	   -0.3650070000 	    1.6636540000
H   	   -4.4515970000 	   -0.5614250000 	    1.7625590000
H   	   -2.0636290000 	    0.5071850000 	    3.3128050000
H   	   -2.1853840000 	    2.8862480000 	    4.0362000000
H   	   -2.4466570000 	    4.6820560000 	    2.3416980000
H   	   -2.5495880000 	    4.1005790000 	   -0.0694900000
H   	   -2.3807430000 	    1.7261490000 	   -0.7855900000
