13
tauto -584.846959212
O   	    1.9274470000 	    1.5272610000 	    0.0000530000
N   	    1.5267970000 	    0.3866090000 	   -0.0000510000
C   	    0.1398340000 	    0.1354150000 	   -0.0000140000
C   	   -0.3719750000 	   -1.1515550000 	   -0.0000050000
O   	    0.2660790000 	   -2.2757580000 	   -0.0000040000
O   	   -1.6849830000 	   -1.2142640000 	   -0.0000030000
C   	   -2.1971220000 	    0.1413510000 	    0.0000290000
C   	   -0.9697280000 	    1.0693710000 	   -0.0000010000
O   	   -1.0237990000 	    2.2747310000 	   -0.0000320000
O   	    2.2767070000 	   -0.6126920000 	    0.0000020000
H   	    1.2286260000 	   -2.0155950000 	    0.0000460000
H   	   -2.8068860000 	    0.2738010000 	    0.8957220000
H   	   -2.8069790000 	    0.2738120000 	   -0.8955960000
