26
tauto -726.093758552
C   	    3.7502940000 	   -1.6407730000 	    0.8729230000
C   	    3.3925940000 	   -1.0003850000 	   -0.4556300000
O   	    2.3479450000 	   -0.0296680000 	   -0.3026390000
C   	    1.0957190000 	   -0.5218780000 	   -0.2528120000
C   	    0.1017300000 	    0.5394400000 	   -0.0899570000
C   	   -1.2529010000 	    0.3304160000 	    0.0029390000
O   	   -1.9331360000 	   -0.7993900000 	   -0.0356910000
C   	   -3.3604800000 	   -0.7192160000 	    0.1063060000
C   	   -3.8897350000 	   -2.1326070000 	    0.0121650000
O   	   -1.9250590000 	    1.4738440000 	    0.1505250000
C   	   -0.9883600000 	    2.5006330000 	    0.1575630000
C   	    0.2495500000 	    1.9726490000 	    0.0143400000
O   	    1.4428870000 	    2.6050480000 	   -0.0317340000
O   	    0.8307860000 	   -1.7027540000 	   -0.3363910000
H   	    4.5968760000 	   -2.3240990000 	    0.7452360000
H   	    2.9008780000 	   -2.2110980000 	    1.2579690000
H   	    4.0290210000 	   -0.8769760000 	    1.6055130000
H   	    3.0753180000 	   -1.7541860000 	   -1.1812720000
H   	    4.2324170000 	   -0.4337980000 	   -0.8654320000
H   	   -3.7650150000 	   -0.0793920000 	   -0.6857410000
H   	   -3.5993240000 	   -0.2588190000 	    1.0715070000
H   	   -3.6343530000 	   -2.5749410000 	   -0.9545660000
H   	   -4.9788830000 	   -2.1292870000 	    0.1204340000
H   	   -3.4607930000 	   -2.7560840000 	    0.8013850000
H   	   -1.3824240000 	    3.4978830000 	    0.2710690000
H   	    1.2884400000 	    3.5544770000 	    0.0543080000
