19
tauto -423.0892395
C   	    2.4443090000 	   -1.1731360000 	    0.0347940000
C   	    1.4557310000 	   -0.0434950000 	   -0.0057250000
O   	    1.9956850000 	    1.1929080000 	   -0.1021210000
C   	    0.1200030000 	   -0.1990740000 	    0.0478890000
C   	   -0.6294200000 	   -1.5117080000 	    0.1412210000
C   	   -2.0636320000 	   -1.1499840000 	   -0.2991360000
C   	   -2.2530480000 	    0.3006260000 	    0.1495770000
C   	   -0.8566080000 	    0.9186540000 	    0.0467050000
O   	   -0.6286500000 	    2.1088770000 	   -0.0082000000
H   	    3.0606320000 	   -1.1750510000 	   -0.8734030000
H   	    1.9534160000 	   -2.1434160000 	    0.1183440000
H   	    3.1156090000 	   -1.0576300000 	    0.8952480000
H   	    2.9577990000 	    1.1161910000 	   -0.1266100000
H   	   -0.6390130000 	   -1.8890040000 	    1.1741790000
H   	   -0.2070810000 	   -2.3043080000 	   -0.4862040000
H   	   -2.8110310000 	   -1.8339500000 	    0.1137390000
H   	   -2.1325760000 	   -1.2072610000 	   -1.3920200000
H   	   -2.5622190000 	    0.3537480000 	    1.2027260000
H   	   -2.9758320000 	    0.8751000000 	   -0.4353770000
