17
tauto -571.093735504
C   	   -2.7691720000 	   -0.3626080000 	    0.0878820000
C   	   -1.3264250000 	   -0.6098220000 	    0.4293580000
C   	   -0.3052710000 	   -0.1378930000 	   -0.6375100000
C   	   -0.1048750000 	    1.3581510000 	   -0.3833210000
C   	    1.0758180000 	    1.6833670000 	    0.4118840000
C   	    1.9804300000 	    0.7390810000 	    0.6945380000
O   	    1.9625010000 	   -0.5448270000 	    0.2584750000
O   	   -0.9261390000 	    2.1673480000 	   -0.7646900000
C   	    0.9304040000 	   -1.0026260000 	   -0.5293820000
O   	    1.0441270000 	   -2.0673650000 	   -1.0570290000
O   	   -0.9390420000 	   -1.1070980000 	    1.4586730000
H   	   -3.0752880000 	   -1.0673440000 	   -0.6945250000
H   	   -2.8926620000 	    0.6491510000 	   -0.3122610000
H   	   -3.3893570000 	   -0.5125080000 	    0.9729520000
H   	   -0.7340210000 	   -0.2764050000 	   -1.6335830000
H   	    1.2067790000 	    2.6970030000 	    0.7710590000
H   	    2.8675230000 	    0.9197480000 	    1.2922260000
