26
tauto -631.056482383
C   	   -2.0476820000 	   -0.3751910000 	    1.6484660000
C   	   -2.3962530000 	   -0.5915180000 	    0.1748170000
C   	   -3.7192600000 	    0.0833590000 	   -0.1916660000
C   	   -1.2653840000 	   -0.1616860000 	   -0.7688690000
N   	   -0.8587020000 	    1.2394670000 	   -0.6403540000
C   	    0.4396250000 	    1.2900590000 	   -0.2194960000
O   	    0.9962110000 	    2.4554980000 	    0.0693410000
C   	    1.0598580000 	    0.0588330000 	   -0.1617730000
C   	    2.4804360000 	   -0.1644990000 	    0.1509050000
C   	    2.9639070000 	   -1.5972510000 	    0.1426220000
O   	    3.2304610000 	    0.7629740000 	    0.4049870000
C   	    0.0438610000 	   -0.9260840000 	   -0.4898570000
O   	    0.1103800000 	   -2.1413980000 	   -0.5522010000
H   	   -2.8638560000 	   -0.7285570000 	    2.2870520000
H   	   -1.8925940000 	    0.6871880000 	    1.8768730000
H   	   -1.1409700000 	   -0.9187450000 	    1.9321430000
H   	   -2.4926910000 	   -1.6710120000 	    0.0016790000
H   	   -3.6841010000 	    1.1683530000 	   -0.0199370000
H   	   -4.5362110000 	   -0.3081270000 	    0.4234540000
H   	   -3.9779760000 	   -0.0816480000 	   -1.2434540000
H   	   -1.5642470000 	   -0.3601730000 	   -1.8054800000
H   	   -1.5186160000 	    1.9100010000 	   -0.2673480000
H   	    0.4116470000 	    3.1779030000 	   -0.2024710000
H   	    2.3946720000 	   -2.2009930000 	    0.8563650000
H   	    4.0261950000 	   -1.6085590000 	    0.3938370000
H   	    2.7985970000 	   -2.0546160000 	   -0.8381460000
