13
tauto -584.834675902
O   	    2.1082950000 	   -1.1915090000 	   -0.0010490000
N   	    1.4630370000 	   -0.1641870000 	   -0.0000800000
O   	    2.1621980000 	    1.0093390000 	    0.0015770000
C   	    0.1486190000 	   -0.0199750000 	   -0.0005000000
C   	   -0.6086220000 	    1.2287510000 	   -0.0003370000
C   	   -2.0604700000 	    0.7570770000 	    0.0002570000
O   	   -2.0405050000 	   -0.6696030000 	    0.0005420000
O   	   -0.2431770000 	    2.3799970000 	   -0.0009440000
C   	   -0.7725480000 	   -1.1719490000 	    0.0000340000
O   	   -0.5372780000 	   -2.3452690000 	    0.0001240000
H   	    3.0858100000 	    0.6910080000 	    0.0009480000
H   	   -2.5829970000 	    1.1154860000 	   -0.8915540000
H   	   -2.5822060000 	    1.1157590000 	    0.8924390000
