17
tauto -513.167326462
C   	    2.4354190000 	    1.1482400000 	    0.0113100000
C   	    1.5568120000 	   -0.0722450000 	   -0.0047420000
C   	    0.1288310000 	    0.0723650000 	    0.0014580000
C   	   -0.7489990000 	    1.2227940000 	   -0.0032470000
C   	   -2.1914060000 	    0.6556160000 	    0.0013940000
N   	   -1.9877850000 	   -0.7851250000 	    0.0083280000
O   	   -0.5096050000 	    2.4160500000 	   -0.0115530000
C   	   -0.6826550000 	   -1.0739220000 	    0.0035550000
O   	   -0.2610130000 	   -2.3058650000 	    0.0008850000
O   	    2.0626990000 	   -1.2118060000 	   -0.0135060000
H   	    1.8536800000 	    2.0633030000 	   -0.1179700000
H   	    3.1931330000 	    1.0543560000 	   -0.7719130000
H   	    2.9610770000 	    1.1861480000 	    0.9716910000
H   	   -2.7291900000 	    0.9882870000 	   -0.8918360000
H   	   -2.7279170000 	    0.9972640000 	    0.8919660000
H   	   -2.7091600000 	   -1.4880420000 	    0.0002700000
H   	    0.7482110000 	   -2.2095550000 	   -0.0054670000
