12
tauto -418.485705037
O   	   -1.9064650000 	   -1.3305100000 	    0.0000060000
C   	   -0.7317400000 	   -0.7140400000 	    0.0000970000
C   	   -0.7240550000 	    0.7824620000 	    0.0000230000
C   	    0.7134910000 	    1.2321640000 	    0.0003710000
O   	   -1.7548720000 	    1.4198250000 	   -0.0003050000
C   	    0.5186810000 	   -1.2091250000 	    0.0001410000
C   	    1.4889870000 	   -0.0923210000 	    0.0000040000
O   	    2.6947530000 	   -0.1874140000 	   -0.0003540000
H   	   -2.5812920000 	   -0.6241880000 	   -0.0002600000
H   	    0.9516110000 	    1.8314970000 	    0.8846720000
H   	    0.9519830000 	    1.8323980000 	   -0.8832090000
H   	    0.8181850000 	   -2.2497580000 	    0.0002000000
