20
tauto -610.374444593
C   	   -3.2319690000 	    0.4583540000 	    0.9091750000
C   	   -2.5863230000 	    0.1608570000 	   -0.4501280000
C   	   -1.3285440000 	   -0.6459590000 	   -0.2875610000
O   	   -1.4680350000 	   -1.9762540000 	   -0.2186420000
C   	   -0.0927480000 	   -0.1097520000 	   -0.1579450000
C   	    0.2386580000 	    1.3388870000 	   -0.1755110000
C   	    1.7101630000 	    1.4515870000 	   -0.0246020000
C   	    2.2449540000 	    0.2241610000 	    0.0898150000
O   	    3.5047860000 	   -0.1815250000 	    0.2470580000
O   	   -0.5298830000 	    2.2802030000 	   -0.2797560000
C   	    1.1704140000 	   -0.8480770000 	    0.0216550000
O   	    1.3869290000 	   -2.0343860000 	    0.1034750000
H   	   -4.1861640000 	    0.9749260000 	    0.7708730000
H   	   -2.5746830000 	    1.1054910000 	    1.4965790000
H   	   -3.4187960000 	   -0.4574630000 	    1.4812730000
H   	   -2.3454860000 	    1.1015330000 	   -0.9471040000
H   	   -3.2790060000 	   -0.4014460000 	   -1.0923700000
H   	   -2.3992150000 	   -2.2073230000 	   -0.3412240000
H   	    2.2164820000 	    2.4104270000 	   -0.0081140000
H   	    4.0888660000 	    0.5892010000 	    0.2736130000
