15
tauto -457.784220963
O   	    2.6749120000 	   -0.3209700000 	   -0.0004100000
C   	    1.4898660000 	   -0.9203080000 	    0.0020460000
C   	    0.3174190000 	   -0.2576400000 	   -0.0002740000
C   	   -0.9595060000 	   -0.9929390000 	   -0.0019330000
C   	   -2.0997300000 	    0.0255780000 	   -0.0440620000
C   	   -1.4471410000 	    1.4128500000 	    0.0466370000
O   	   -1.0973630000 	   -2.1998480000 	    0.0170890000
C   	    0.0715160000 	    1.1960390000 	    0.0007870000
O   	    0.8953210000 	    2.0841500000 	   -0.0211030000
H   	    3.3792930000 	   -0.9816420000 	    0.0022120000
H   	    1.4703880000 	   -2.0124350000 	    0.0068510000
H   	   -2.7987530000 	   -0.1873720000 	    0.7703780000
H   	   -2.6504530000 	   -0.1226330000 	   -0.9793660000
H   	   -1.6846190000 	    1.9296180000 	    0.9827570000
H   	   -1.7333640000 	    2.0863240000 	   -0.7666480000
