22
tauto -649.496266704
C   	    2.4337680000 	   -0.0000290000 	    1.6322560000
C   	    2.5745330000 	    0.0000070000 	    0.1291640000
C   	    1.2714300000 	    0.0000130000 	   -0.6739560000
C   	    0.3669660000 	    1.2092120000 	   -0.3926310000
C   	   -1.0128910000 	    0.6954910000 	   -0.1619830000
C   	   -1.0128860000 	   -0.6954890000 	   -0.1619900000
C   	   -2.1803870000 	   -1.4182840000 	    0.0554220000
C   	   -3.3529050000 	   -0.7011110000 	    0.2661320000
C   	   -3.3529090000 	    0.7010950000 	    0.2661400000
C   	   -2.1803950000 	    1.4182760000 	    0.0554380000
O   	    0.7189570000 	    2.3639450000 	   -0.3449750000
C   	    0.3669750000 	   -1.2091980000 	   -0.3926420000
O   	    0.7189760000 	   -2.3639280000 	   -0.3449960000
O   	    3.6420880000 	    0.0000150000 	   -0.4338930000
H   	    1.8782580000 	    0.8866890000 	    1.9592800000
H   	    3.4236920000 	    0.0000730000 	    2.0905390000
H   	    1.8784730000 	   -0.8869010000 	    1.9592300000
H   	    1.5502000000 	    0.0000190000 	   -1.7342860000
H   	   -2.1628860000 	   -2.5045510000 	    0.0579020000
H   	   -4.2863960000 	   -1.2309580000 	    0.4361000000
H   	   -4.2864030000 	    1.2309340000 	    0.4361130000
H   	   -2.1628980000 	    2.5045430000 	    0.0579290000
