19
tauto -701.33246726
O   	    3.2344130000 	    1.0862980000 	    0.0001560000
N   	    2.5971310000 	    0.0577600000 	   -0.0000960000
C   	    1.1853540000 	    0.0994600000 	   -0.0000630000
C   	    0.3097300000 	    1.3004090000 	   -0.0000560000
C   	   -1.0884500000 	    0.7257790000 	   -0.0000340000
C   	   -1.0127600000 	   -0.6693400000 	   -0.0000300000
C   	   -2.1463220000 	   -1.4594630000 	   -0.0000130000
C   	   -3.3838770000 	   -0.8059610000 	    0.0000020000
C   	   -3.4619260000 	    0.5845850000 	   -0.0000050000
C   	   -2.3043450000 	    1.3737500000 	   -0.0000220000
O   	    0.6002730000 	    2.4708600000 	   -0.0000370000
C   	    0.4149000000 	   -1.0390200000 	   -0.0000360000
O   	    0.8087500000 	   -2.2818380000 	   -0.0000220000
O   	    3.1203380000 	   -1.0768150000 	    0.0001840000
H   	   -2.0786070000 	   -2.5435480000 	   -0.0000050000
H   	   -4.2982800000 	   -1.3926360000 	    0.0000190000
H   	   -4.4372090000 	    1.0636150000 	    0.0000050000
H   	   -2.3519830000 	    2.4591250000 	   -0.0000300000
H   	    1.8021470000 	   -2.2401110000 	   -0.0000370000
