20
tauto -552.458238548
C   	   -3.5358470000 	   -0.0643550000 	    0.8433550000
C   	   -2.8961140000 	   -0.3910390000 	   -0.4922110000
O   	   -1.5150280000 	   -0.7638850000 	   -0.3334400000
C   	   -0.6362550000 	    0.2491640000 	   -0.2251030000
C   	    0.7246300000 	   -0.1814760000 	   -0.0695900000
N   	    1.1943620000 	   -1.4820640000 	   -0.0235550000
H   	    0.6093150000 	   -2.2978190000 	   -0.0970920000
C   	    2.5393680000 	   -1.4582820000 	    0.1316630000
C   	    2.9748840000 	   -0.1489600000 	    0.1896140000
C   	    1.8223320000 	    0.6599970000 	    0.0617450000
O   	    1.7860730000 	    2.0012030000 	    0.0648970000
O   	   -0.9531260000 	    1.4335780000 	   -0.2589930000
H   	   -4.6027440000 	    0.1401710000 	    0.7048400000
H   	   -3.0685330000 	    0.8210600000 	    1.2822930000
H   	   -3.4328850000 	   -0.9035430000 	    1.5382940000
H   	   -2.9537010000 	    0.4585390000 	   -1.1772660000
H   	   -3.3600780000 	   -1.2636550000 	   -0.9581800000
H   	    3.1074840000 	   -2.3768380000 	    0.1915850000
H   	    3.9933130000 	    0.1919560000 	    0.3092640000
H   	    0.8459470000 	    2.2471250000 	   -0.0454000000
