24
tauto -575.728901855
C   	   -1.7554250000 	   -0.1709200000 	    1.5877960000
C   	   -1.7693830000 	   -0.1817850000 	    0.0528110000
C   	   -3.2008110000 	   -0.4193930000 	   -0.4347470000
C   	   -0.8622500000 	   -1.3045130000 	   -0.4784740000
C   	    0.6112190000 	   -1.0853340000 	   -0.2238110000
C   	    1.0993240000 	    0.2812510000 	   -0.1143740000
C   	    2.4373440000 	    0.5010220000 	    0.0931300000
O   	    3.3406250000 	   -0.4365090000 	    0.1934190000
O   	    1.3792770000 	   -2.0534460000 	   -0.1361400000
C   	   -1.2607550000 	    1.1635580000 	   -0.4914430000
C   	    0.2010190000 	    1.4510910000 	   -0.1946170000
O   	    0.6104820000 	    2.5912430000 	   -0.0594680000
H   	   -2.1231560000 	   -1.1241140000 	    1.9853710000
H   	   -2.4020780000 	    0.6260770000 	    1.9724050000
H   	   -0.7495870000 	   -0.0062590000 	    1.9920390000
H   	   -3.5846580000 	   -1.3788500000 	   -0.0678560000
H   	   -3.2523430000 	   -0.4311270000 	   -1.5301290000
H   	   -3.8706750000 	    0.3699010000 	   -0.0741000000
H   	   -0.9813060000 	   -1.3881830000 	   -1.5695390000
H   	   -1.1334990000 	   -2.2791210000 	   -0.0580990000
H   	    2.8206090000 	    1.5158080000 	    0.1859250000
H   	    2.8507660000 	   -1.3049960000 	    0.0949490000
H   	   -1.8490910000 	    2.0022490000 	   -0.1041810000
H   	   -1.3697390000 	    1.1784370000 	   -1.5868940000
