16
tauto -495.86596609
C   	   -2.3891240000 	    0.9919200000 	   -0.0000450000
C   	   -1.4295020000 	   -0.1574730000 	    0.0000320000
O   	   -1.9681510000 	   -1.3830910000 	    0.0002280000
C   	   -0.0820390000 	   -0.0311280000 	   -0.0000580000
C   	    0.9063020000 	   -1.1375060000 	   -0.0001130000
C   	    2.2625020000 	   -0.4799260000 	    0.0001530000
C   	    2.1355190000 	    0.8477750000 	    0.0001950000
O   	    0.7156800000 	   -2.3338340000 	   -0.0002810000
C   	    0.6837850000 	    1.2360460000 	    0.0000140000
O   	    0.2811230000 	    2.3846410000 	   -0.0001720000
H   	   -3.0313090000 	    0.9377780000 	    0.8878210000
H   	   -3.0314630000 	    0.9373060000 	   -0.8877900000
H   	   -1.8536480000 	    1.9415660000 	   -0.0003910000
H   	   -2.9325120000 	   -1.3100970000 	    0.0004810000
H   	    3.1762400000 	   -1.0644070000 	    0.0002270000
H   	    2.9188170000 	    1.5978670000 	    0.0003770000
