36
tauto -991.163485906
C   	   -4.6202470000 	    1.0545610000 	    0.3122230000
C   	   -3.7333700000 	   -0.0966300000 	   -0.0647640000
C   	   -2.3014340000 	    0.0665240000 	   -0.0037560000
C   	   -1.4696170000 	    1.1665980000 	    0.4319480000
N   	   -0.1287520000 	    0.6779750000 	    0.3327760000
C   	    0.9434110000 	    1.5428350000 	   -0.0392830000
C   	    1.1800530000 	    2.6726330000 	    0.7442720000
C   	    2.2115090000 	    3.5378150000 	    0.3988830000
C   	    3.0208460000 	    3.2736550000 	   -0.7023540000
C   	    2.7841900000 	    2.1380500000 	   -1.4694100000
C   	    1.7433770000 	    1.2731940000 	   -1.1487750000
N   	   -0.1519830000 	   -0.6088380000 	   -0.2407780000
C   	    0.8926400000 	   -1.5337920000 	    0.0823650000
C   	    1.1459600000 	   -2.5856820000 	   -0.7940790000
C   	    2.1504530000 	   -3.4969520000 	   -0.4881410000
C   	    2.9109240000 	   -3.3451810000 	    0.6673730000
C   	    2.6588280000 	   -2.2783870000 	    1.5248270000
C   	    1.6461210000 	   -1.3689620000 	    1.2414450000
O   	   -1.7489750000 	    2.2910200000 	    0.8001470000
C   	   -1.4568940000 	   -0.9674090000 	   -0.3620300000
O   	   -1.8001890000 	   -2.1717110000 	   -0.7379670000
O   	   -4.2015890000 	   -1.1846300000 	   -0.4359260000
H   	   -4.2480040000 	    1.5519260000 	    1.2120090000
H   	   -5.6441590000 	    0.7010970000 	    0.4451690000
H   	   -4.5924420000 	    1.8026230000 	   -0.4883620000
H   	    0.5430080000 	    2.8728190000 	    1.5978380000
H   	    2.3868200000 	    4.4229500000 	    1.0046220000
H   	    3.8317970000 	    3.9492260000 	   -0.9604450000
H   	    3.4079850000 	    1.9213290000 	   -2.3326180000
H   	    1.5552840000 	    0.3952190000 	   -1.7585640000
H   	    0.5572100000 	   -2.6890070000 	   -1.6998540000
H   	    2.3453880000 	   -4.3229220000 	   -1.1666210000
H   	    3.7015230000 	   -4.0541500000 	    0.8969150000
H   	    3.2499800000 	   -2.1517240000 	    2.4276360000
H   	    1.4406340000 	   -0.5363920000 	    1.9067650000
H   	   -2.8043530000 	   -2.1416010000 	   -0.7229910000
