30
tauto -953.459392738
O   	   -1.9442900000 	    2.4168570000 	    0.0377910000
C   	   -1.6477170000 	    1.0939520000 	    0.0593640000
C   	   -2.7906510000 	    0.1508400000 	    0.0355770000
C   	   -3.9472090000 	    0.5103650000 	   -0.6661830000
C   	   -5.0524450000 	   -0.3326920000 	   -0.6840570000
C   	   -5.0162370000 	   -1.5407910000 	    0.0048590000
C   	   -3.8692690000 	   -1.9038970000 	    0.7068280000
C   	   -2.7610120000 	   -1.0664230000 	    0.7238890000
C   	   -0.3489740000 	    0.7443180000 	    0.0414540000
O   	    0.0248650000 	   -0.5972310000 	   -0.0544940000
C   	    1.3843800000 	   -0.6351540000 	   -0.0641020000
C   	    2.1079980000 	   -1.8131660000 	   -0.1547910000
C   	    3.4968520000 	   -1.6745130000 	   -0.1511870000
O   	    4.3198980000 	   -2.7481410000 	   -0.2356190000
C   	    4.1231410000 	   -0.4244490000 	   -0.0597880000
C   	    3.3577930000 	    0.7341740000 	    0.0287600000
O   	    3.9022680000 	    1.9622010000 	    0.1182030000
C   	    1.9606660000 	    0.6271710000 	    0.0272360000
C   	    0.8674950000 	    1.6099720000 	    0.0970010000
O   	    0.9067780000 	    2.8198920000 	    0.1841500000
H   	   -2.8465650000 	    2.5291950000 	    0.3661750000
H   	   -3.9686560000 	    1.4427300000 	   -1.2265030000
H   	   -5.9403890000 	   -0.0471310000 	   -1.2417930000
H   	   -5.8799390000 	   -2.2005200000 	   -0.0058550000
H   	   -3.8394530000 	   -2.8450000000 	    1.2496320000
H   	   -1.8684430000 	   -1.3490950000 	    1.2719570000
H   	    1.6173840000 	   -2.7788950000 	   -0.2288460000
H   	    3.7866540000 	   -3.5509460000 	   -0.2976760000
H   	    5.2092330000 	   -0.3880370000 	   -0.0618750000
H   	    4.8651470000 	    1.8808470000 	    0.1053750000
