24
tauto -721.822811189
O   	    3.1495250000 	    1.8605010000 	    0.4890450000
C   	    3.0476830000 	    0.5415090000 	    0.1806040000
C   	    1.9331900000 	   -0.2226530000 	   -0.0535250000
C   	    0.5066280000 	    0.0783900000 	   -0.0796330000
N   	   -0.3566540000 	   -0.8964360000 	    0.0920240000
C   	   -1.6752270000 	   -0.5584850000 	    0.0632780000
C   	   -2.6528740000 	   -1.5711560000 	    0.2412910000
C   	   -3.9832670000 	   -1.2463240000 	    0.2343580000
C   	   -4.4001090000 	    0.0969500000 	    0.0485420000
C   	   -3.4757380000 	    1.0918200000 	   -0.1293930000
C   	   -2.0936370000 	    0.7802620000 	   -0.1257880000
N   	   -1.1811830000 	    1.7770070000 	   -0.3243250000
C   	    0.0737170000 	    1.4264030000 	   -0.3097880000
O   	    2.3239150000 	   -1.5103070000 	   -0.2905860000
C   	    3.6671910000 	   -1.5393910000 	   -0.2307020000
C   	    4.1798590000 	   -0.3165170000 	    0.0565670000
H   	    2.3263680000 	    2.1597310000 	    0.8961880000
H   	   -2.3056440000 	   -2.5903510000 	    0.3832460000
H   	   -4.7320450000 	   -2.0219670000 	    0.3721260000
H   	   -5.4612710000 	    0.3310400000 	    0.0458670000
H   	   -3.7617750000 	    2.1288980000 	   -0.2792260000
H   	    0.8066470000 	    2.2049140000 	   -0.5240860000
H   	    4.1233780000 	   -2.5020230000 	   -0.4109130000
H   	    5.2171880000 	   -0.0406420000 	    0.1803690000
