21
tauto -611.37646056
C   	   -3.5180600000 	    0.6270520000 	    0.0002420000
C   	   -2.5532380000 	   -0.5473020000 	   -0.0000270000
C   	   -1.1222060000 	   -0.2291400000 	   -0.0000220000
O   	   -0.2539710000 	   -1.3031670000 	    0.0000030000
C   	    0.9948550000 	   -0.7905450000 	    0.0000120000
C   	    0.9730390000 	    0.6052110000 	   -0.0000420000
C   	    2.1713820000 	    1.3309460000 	   -0.0000600000
C   	    3.3553470000 	    0.6182330000 	    0.0000290000
C   	    3.3558040000 	   -0.7922030000 	    0.0000740000
C   	    2.1804640000 	   -1.5229270000 	    0.0000510000
C   	   -0.4220280000 	    0.9483770000 	   -0.0000270000
O   	   -0.8344640000 	    2.2312410000 	   -0.0001270000
O   	   -2.9524070000 	   -1.6941270000 	   -0.0001950000
H   	   -3.3850000000 	    1.2481520000 	   -0.8951960000
H   	   -3.3846900000 	    1.2479920000 	    0.8957580000
H   	   -4.5368430000 	    0.2361940000 	    0.0004210000
H   	    2.1612390000 	    2.4170700000 	   -0.0000870000
H   	    4.3040590000 	    1.1474570000 	    0.0000630000
H   	    4.3064120000 	   -1.3189550000 	    0.0001280000
H   	    2.1686610000 	   -2.6079560000 	    0.0000800000
H   	   -1.7992490000 	    2.2722540000 	    0.0000150000
