22
tauto -591.540407394
C   	   -3.3387620000 	   -1.4880260000 	    0.0001000000
C   	   -2.5940900000 	   -0.1739240000 	   -0.0001210000
C   	   -1.1530670000 	   -0.1771300000 	    0.0000240000
N   	   -0.2940110000 	   -1.2835540000 	    0.0000050000
H   	   -0.5789970000 	   -2.2479460000 	    0.0002940000
C   	    0.9981480000 	   -0.8383730000 	    0.0000260000
C   	    0.9940500000 	    0.5752520000 	    0.0000400000
C   	    2.2046050000 	    1.2868870000 	    0.0000080000
C   	    3.3863100000 	    0.5776870000 	   -0.0000390000
C   	    3.3782900000 	   -0.8357450000 	   -0.0000480000
C   	    2.2033630000 	   -1.5586440000 	   -0.0000060000
C   	   -0.3809360000 	    0.9704600000 	    0.0000850000
O   	   -0.8309440000 	    2.2261680000 	    0.0001340000
O   	   -3.1990500000 	    0.9034780000 	   -0.0003790000
H   	   -3.0731910000 	   -2.0809480000 	   -0.8832850000
H   	   -4.4122870000 	   -1.2933840000 	   -0.0056530000
H   	   -3.0818740000 	   -2.0748230000 	    0.8901360000
H   	    2.1958660000 	    2.3733570000 	    0.0000260000
H   	    4.3368810000 	    1.1033660000 	   -0.0000690000
H   	    4.3261720000 	   -1.3681680000 	   -0.0000990000
H   	    2.2098160000 	   -2.6456200000 	   -0.0000310000
H   	   -1.8118280000 	    2.1512080000 	    0.0002050000
