15
tauto -549.015833625
C   	   -3.3334850000 	   -0.3609710000 	    0.0004200000
O   	   -1.9708920000 	   -0.8025230000 	   -0.0002100000
C   	   -1.0580190000 	    0.1660830000 	   -0.0002800000
C   	    0.3139910000 	   -0.2939290000 	   -0.0007260000
C   	    1.3567590000 	    0.6046490000 	   -0.0000680000
O   	    1.3503700000 	    1.9144980000 	    0.0000030000
O   	    2.5175400000 	   -0.0191380000 	    0.0003700000
N   	    2.2813020000 	   -1.4112360000 	    0.0003000000
C   	    0.9861270000 	   -1.5458270000 	   -0.0001530000
O   	   -1.3352950000 	    1.3616370000 	    0.0000190000
H   	   -3.9331120000 	   -1.2706260000 	    0.0006870000
H   	   -3.5396030000 	    0.2371020000 	   -0.8901300000
H   	   -3.5387360000 	    0.2370700000 	    0.8911940000
H   	    0.3945020000 	    2.1613290000 	   -0.0000780000
H   	    0.5618110000 	   -2.5420440000 	   -0.0003830000
