18
tauto -493.244677186
C   	    2.9361170000 	   -0.8853510000 	    0.0001410000
C   	    1.7995200000 	    0.0920860000 	   -0.0000510000
O   	    2.1327890000 	    1.3900680000 	   -0.0001340000
C   	    0.4945080000 	   -0.2563610000 	   -0.0000300000
C   	   -0.1038390000 	   -1.5794870000 	   -0.0000440000
N   	   -1.3941860000 	   -1.5270330000 	   -0.0000640000
N   	   -1.7450630000 	   -0.1989390000 	   -0.0000580000
C   	   -3.1288710000 	    0.1940340000 	    0.0000590000
C   	   -0.6671540000 	    0.6685910000 	    0.0000010000
O   	   -0.7306750000 	    1.8858080000 	    0.0000880000
H   	    3.5621910000 	   -0.7343890000 	    0.8878970000
H   	    3.5627240000 	   -0.7342610000 	   -0.8872130000
H   	    2.5858530000 	   -1.9179820000 	   -0.0000100000
H   	    3.0949350000 	    1.4811930000 	   -0.0000870000
H   	    0.3943290000 	   -2.5425400000 	   -0.0001050000
H   	   -3.6393860000 	   -0.1823280000 	   -0.8918420000
H   	   -3.1453220000 	    1.2859400000 	   -0.0001420000
H   	   -3.6391810000 	   -0.1819120000 	    0.8922690000
