21
tauto -532.588017745
C   	   -3.6724610000 	   -0.2828440000 	    0.7091820000
C   	   -2.7692970000 	   -0.6311510000 	   -0.4770530000
C   	   -1.3804920000 	   -0.0934840000 	   -0.3137400000
N   	   -0.3587670000 	   -0.9139810000 	   -0.2120120000
N   	    0.7296010000 	   -0.0872370000 	   -0.0592360000
C   	    2.0191740000 	   -0.5735530000 	    0.0824710000
C   	    2.1730630000 	   -2.0649230000 	    0.0642890000
O   	    2.9498250000 	    0.2102950000 	    0.2135010000
C   	    0.3580190000 	    1.2496500000 	   -0.0680720000
O   	    1.2402430000 	    2.2334020000 	    0.0617270000
C   	   -0.9967760000 	    1.2795730000 	   -0.2291050000
H   	   -4.6780690000 	   -0.6901350000 	    0.5635110000
H   	   -3.7630250000 	    0.8014600000 	    0.8356460000
H   	   -3.2677510000 	   -0.6959760000 	    1.6388360000
H   	   -3.2028980000 	   -0.2284110000 	   -1.4010240000
H   	   -2.6981690000 	   -1.7167320000 	   -0.5979860000
H   	    1.7909880000 	   -2.4718370000 	   -0.8755250000
H   	    1.5827050000 	   -2.5133460000 	    0.8675810000
H   	    3.2303720000 	   -2.3012600000 	    0.1854870000
H   	    2.1261050000 	    1.8183410000 	    0.1555470000
H   	   -1.6240220000 	    2.1572380000 	   -0.2829870000
