22
tauto -607.798678405
C   	   -3.9351410000 	    0.0877140000 	    0.8910320000
C   	   -3.3522380000 	   -0.3167830000 	   -0.4492460000
O   	   -1.9959820000 	   -0.7811110000 	   -0.3118780000
C   	   -1.0510320000 	    0.1584580000 	   -0.2371720000
C   	    0.2945790000 	   -0.3496220000 	   -0.1047000000
C   	    0.8957450000 	   -1.6314400000 	   -0.0316000000
N   	    2.2028780000 	   -1.5522910000 	    0.0889000000
N   	    2.4829870000 	   -0.2145170000 	    0.0979080000
C   	    3.8468810000 	    0.2487930000 	    0.2083260000
C   	    1.3733700000 	    0.5251660000 	   -0.0165830000
O   	    1.3926820000 	    1.8533170000 	   -0.0346390000
O   	   -1.2885660000 	    1.3651320000 	   -0.2812690000
H   	   -4.9899680000 	    0.3564090000 	    0.7712000000
H   	   -3.4015940000 	    0.9527730000 	    1.2933380000
H   	   -3.8685650000 	   -0.7376520000 	    1.6064330000
H   	   -3.3696210000 	    0.5155960000 	   -1.1573310000
H   	   -3.8835360000 	   -1.1689680000 	   -0.8788400000
H   	    0.4106890000 	   -2.5985230000 	   -0.0634350000
H   	    4.4224740000 	   -0.0717690000 	   -0.6636650000
H   	    4.3002070000 	   -0.1617910000 	    1.1132580000
H   	    3.8350360000 	    1.3387140000 	    0.2618150000
H   	    0.4457650000 	    2.1104440000 	   -0.1284740000
