17
tauto -547.18146247
N   	   -2.9626500000 	    2.1146740000 	   -0.0000100000
C   	   -2.0886960000 	    1.3501180000 	   -0.0000130000
C   	   -1.0808570000 	    0.3543220000 	   -0.0000040000
C   	    0.3567070000 	    0.4740620000 	    0.0000070000
C   	    1.2695130000 	    1.5302920000 	    0.0000160000
C   	    2.6161790000 	    1.2023720000 	    0.0000110000
N   	    3.1032200000 	   -0.0513340000 	   -0.0000070000
C   	    2.2424530000 	   -1.0610060000 	   -0.0000220000
C   	    0.8716320000 	   -0.8342980000 	   -0.0000080000
N   	   -0.2048850000 	   -1.7179330000 	    0.0000100000
H   	   -0.1670270000 	   -2.7251720000 	    0.0000130000
C   	   -1.3540840000 	   -1.0012610000 	    0.0000050000
O   	   -2.5133910000 	   -1.6570860000 	    0.0000080000
H   	    0.9443380000 	    2.5662660000 	    0.0000250000
H   	    3.3646800000 	    1.9919230000 	    0.0000110000
H   	    2.6564740000 	   -2.0689720000 	   -0.0000170000
H   	   -3.2382130000 	   -1.0128160000 	    0.0000060000
