22
tauto -537.394875667
C   	    3.8840600000 	    1.2545140000 	    0.2475420000
C   	    2.8477830000 	    0.1744470000 	    0.0487640000
C   	    1.4527660000 	    0.5510930000 	    0.0961980000
C   	    0.4720000000 	   -0.3865070000 	   -0.0790930000
C   	   -0.9796370000 	   -0.0890770000 	   -0.0384810000
C   	   -1.8821530000 	   -1.1257240000 	    0.2143540000
C   	   -3.2463480000 	   -0.8683110000 	    0.2749860000
C   	   -3.7234470000 	    0.4236960000 	    0.0740610000
C   	   -2.8305980000 	    1.4585770000 	   -0.1921700000
C   	   -1.4661750000 	    1.2042550000 	   -0.2487680000
O   	    0.7514770000 	   -1.6656100000 	   -0.2834370000
O   	    3.2103920000 	   -0.9971510000 	   -0.1449650000
H   	    3.7787690000 	    2.0273800000 	   -0.5219540000
H   	    4.8826090000 	    0.8177150000 	    0.1942680000
H   	    3.7447300000 	    1.7393000000 	    1.2201670000
H   	    1.1900020000 	    1.5812270000 	    0.3044970000
H   	   -1.5010550000 	   -2.1307800000 	    0.3651310000
H   	   -3.9399320000 	   -1.6797020000 	    0.4791060000
H   	   -4.7909190000 	    0.6237140000 	    0.1191330000
H   	   -3.1991800000 	    2.4664660000 	   -0.3634880000
H   	   -0.7785390000 	    2.0125690000 	   -0.4820180000
H   	    1.7490640000 	   -1.7375660000 	   -0.2719860000
