17
tauto -513.10340983
C   	    2.5265490000 	   -0.6418760000 	    0.0002760000
C   	    1.3946390000 	    0.3336960000 	   -0.0001330000
O   	    1.7172880000 	    1.6391890000 	   -0.0004750000
C   	    0.0874610000 	   -0.0089690000 	    0.0001450000
C   	   -1.1032190000 	    0.8247460000 	    0.0000580000
C   	   -1.1928630000 	    2.3142570000 	    0.0003520000
N   	   -2.1743640000 	    0.1093500000 	   -0.0002050000
O   	   -1.8016080000 	   -1.2503380000 	   -0.0002140000
C   	   -0.4421560000 	   -1.3810780000 	    0.0000140000
O   	    0.0975860000 	   -2.4616630000 	    0.0000720000
H   	    3.1509690000 	   -0.4866050000 	   -0.8881320000
H   	    2.1472310000 	   -1.6648450000 	    0.0004540000
H   	    3.1506090000 	   -0.4860850000 	    0.8888600000
H   	    2.6795670000 	    1.7360340000 	   -0.0004480000
H   	   -0.6964680000 	    2.7304190000 	    0.8821460000
H   	   -2.2436890000 	    2.6126810000 	    0.0003730000
H   	   -0.6962750000 	    2.7307920000 	   -0.8811510000
