25
tauto -722.114251644
C   	   -4.0128900000 	   -1.2112540000 	    0.8884710000
C   	   -3.3282310000 	   -1.2173360000 	   -0.4644970000
O   	   -1.9155480000 	   -0.9669630000 	   -0.3351780000
C   	   -1.5452880000 	    0.3120990000 	   -0.2223630000
C   	   -0.1257350000 	    0.5148110000 	   -0.0936250000
C   	    1.0153720000 	   -0.3634840000 	   -0.0543930000
C   	    1.2243730000 	   -1.7418810000 	   -0.1202620000
C   	    2.5345590000 	   -2.1920320000 	   -0.0416260000
N   	    3.6138170000 	   -1.4037310000 	    0.0929050000
C   	    3.4247240000 	   -0.0893980000 	    0.1569720000
C   	    2.1518330000 	    0.4572200000 	    0.0866860000
N   	    1.7226140000 	    1.7860970000 	    0.1319780000
H   	    2.2980430000 	    2.6082480000 	    0.2242070000
C   	    0.3733450000 	    1.8067000000 	    0.0238220000
O   	   -0.2897160000 	    2.9469720000 	    0.0367870000
O   	   -2.3473350000 	    1.2494610000 	   -0.2321950000
H   	   -5.0694790000 	   -1.4740820000 	    0.7715490000
H   	   -3.9526650000 	   -0.2182990000 	    1.3417910000
H   	   -3.5478600000 	   -1.9389850000 	    1.5604630000
H   	   -3.7587930000 	   -0.4666840000 	   -1.1316970000
H   	   -3.3842680000 	   -2.1991950000 	   -0.9398100000
H   	    0.3955320000 	   -2.4337380000 	   -0.2286660000
H   	    2.7415000000 	   -3.2595930000 	   -0.0898840000
H   	    4.3111600000 	    0.5352370000 	    0.2659880000
H   	   -1.2397840000 	    2.6821060000 	   -0.0585350000
