21
tauto -536.412649663
O   	    0.4395930000 	    2.4335690000 	    0.2157140000
C   	    0.7275000000 	    1.1324250000 	    0.0012930000
C   	    2.1804950000 	    0.7341570000 	    0.0812250000
C   	    2.4367460000 	   -0.7358120000 	   -0.2787440000
C   	    1.3416000000 	   -1.6580950000 	    0.2687690000
C   	    0.0128080000 	   -1.2477440000 	   -0.3510870000
C   	   -1.2698780000 	   -1.7991690000 	    0.2813640000
O   	   -2.2737520000 	   -0.8001200000 	    0.0657470000
C   	   -0.2385050000 	    0.2269560000 	   -0.1968490000
C   	   -1.6980330000 	    0.4333870000 	   -0.1061420000
O   	   -2.3545030000 	    1.4372700000 	   -0.1576900000
H   	    1.2599220000 	    2.9214190000 	    0.3637250000
H   	    2.5168530000 	    0.9353810000 	    1.1096030000
H   	    2.7726700000 	    1.3904740000 	   -0.5717970000
H   	    3.4213190000 	   -1.0333790000 	    0.0974490000
H   	    2.4712120000 	   -0.8392630000 	   -1.3707720000
H   	    1.2828540000 	   -1.5595290000 	    1.3618120000
H   	    1.5800470000 	   -2.7045520000 	    0.0456640000
H   	    0.0180160000 	   -1.5157060000 	   -1.4188980000
H   	   -1.1452940000 	   -1.9480630000 	    1.3625600000
H   	   -1.6247040000 	   -2.7291650000 	   -0.1684930000
