22
tauto -628.630242041
C   	   -4.6575810000 	   -0.7242550000 	    0.0001990000
O   	   -3.2652320000 	   -1.0210880000 	    0.0000700000
C   	   -2.4587250000 	    0.0713680000 	   -0.0000900000
C   	   -1.0537680000 	   -0.3507990000 	   -0.0000790000
C   	   -0.0113660000 	    0.5031720000 	    0.0000000000
C   	    1.4172190000 	    0.0441190000 	    0.0000230000
N   	    2.2945450000 	    1.0521590000 	    0.0001140000
C   	    3.5971020000 	    0.7736680000 	    0.0001530000
C   	    4.0905540000 	   -0.5243470000 	    0.0000550000
C   	    3.1767160000 	   -1.5738920000 	   -0.0000930000
C   	    1.8182590000 	   -1.2918500000 	   -0.0001210000
O   	   -0.1519070000 	    1.8270690000 	   -0.0000540000
O   	   -2.8909760000 	    1.2012090000 	   -0.0002200000
H   	   -5.1673410000 	   -1.6886260000 	    0.0004710000
H   	   -4.9309760000 	   -0.1473120000 	   -0.8877240000
H   	   -4.9307350000 	   -0.1469520000 	    0.8879680000
H   	   -0.8762230000 	   -1.4183700000 	   -0.0000270000
H   	    4.2701950000 	    1.6283860000 	    0.0001980000
H   	    5.1608020000 	   -0.7050800000 	    0.0000650000
H   	    3.5198360000 	   -2.6050100000 	   -0.0001970000
H   	    1.0885970000 	   -2.0939040000 	   -0.0002710000
H   	    0.7584850000 	    2.1911320000 	    0.0000620000
