7
tauto -153.760544114
C   	   -1.1979350000 	   -0.2038840000 	    0.0000000000
C   	   -0.0343540000 	    0.4400760000 	    0.0000000000
O   	    1.2042050000 	   -0.1155600000 	    0.0000000000
H   	   -2.1282560000 	    0.3512560000 	    0.0000000000
H   	   -1.2591320000 	   -1.2903320000 	    0.0000000000
H   	    0.0377800000 	    1.5243390000 	    0.0000000000
H   	    1.1097020000 	   -1.0779400000 	   -0.0000010000
