26
tauto -651.892473315
C   	   -4.7620960000 	    1.2708990000 	    0.2527250000
C   	   -3.7327750000 	    0.1810480000 	    0.0674040000
C   	   -2.3380940000 	    0.5517980000 	    0.0869180000
C   	   -1.3614150000 	   -0.3956700000 	   -0.0747820000
C   	    0.0881550000 	   -0.1111540000 	   -0.0658590000
C   	    0.5926130000 	    1.1863420000 	   -0.2357420000
C   	    1.9518590000 	    1.4268760000 	   -0.2139820000
C   	    0.9934930000 	   -1.1559590000 	    0.1136160000
C   	    2.3655020000 	   -0.9283590000 	    0.1424990000
C   	    2.8505080000 	    0.3698500000 	   -0.0202730000
O   	    4.1618350000 	    0.7086370000 	   -0.0123380000
C   	    5.1088320000 	   -0.3235110000 	    0.1742860000
O   	   -1.6564900000 	   -1.6774850000 	   -0.2403030000
O   	   -4.1063300000 	   -0.9938770000 	   -0.0897780000
H   	   -4.6496810000 	    2.0376280000 	   -0.5217510000
H   	   -4.6226030000 	    1.7615210000 	    1.2224970000
H   	   -5.7634470000 	    0.8402640000 	    0.2009390000
H   	   -2.0710350000 	    1.5870450000 	    0.2612740000
H   	   -0.0858280000 	    2.0169550000 	   -0.4094530000
H   	    2.3526920000 	    2.4263250000 	   -0.3527070000
H   	    0.6131890000 	   -2.1651500000 	    0.2364650000
H   	    3.0398430000 	   -1.7649650000 	    0.2906520000
H   	    6.0872800000 	    0.1577700000 	    0.1465130000
H   	    5.0488980000 	   -1.0714520000 	   -0.6262760000
H   	    4.9744530000 	   -0.8185000000 	    1.1443010000
H   	   -2.6553810000 	   -1.7385970000 	   -0.2139580000
