19
tauto -589.233223312
O   	    3.6100860000 	   -1.2690400000 	   -0.2928580000
N   	    2.8508220000 	   -0.3397030000 	   -0.0936140000
C   	    1.4580700000 	   -0.5907770000 	   -0.1428070000
C   	    0.5325320000 	    0.3826270000 	    0.0890130000
C   	   -0.9192250000 	    0.1009860000 	    0.0452570000
C   	   -1.8024670000 	    1.1477030000 	   -0.2326930000
C   	   -3.1691780000 	    0.9075960000 	   -0.2976320000
C   	   -3.6645200000 	   -0.3743680000 	   -0.0763980000
C   	   -2.7894890000 	   -1.4173680000 	    0.2157790000
C   	   -1.4220620000 	   -1.1822620000 	    0.2782700000
O   	    0.8360190000 	    1.6445020000 	    0.3428660000
O   	    3.2508870000 	    0.8171080000 	    0.1458700000
H   	    1.2137950000 	   -1.6086660000 	   -0.4007430000
H   	   -1.4074600000 	    2.1447870000 	   -0.4000430000
H   	   -3.8500560000 	    1.7241770000 	   -0.5214990000
H   	   -4.7342090000 	   -0.5601940000 	   -0.1252620000
H   	   -3.1739230000 	   -2.4159120000 	    0.4041310000
H   	   -0.7479170000 	   -1.9946730000 	    0.5359290000
H   	    1.8261100000 	    1.7030220000 	    0.3230270000
