19
tauto -514.268895685
O   	    2.2178220000 	   -1.4798520000 	    0.1186170000
N   	    1.7414960000 	   -0.3625120000 	    0.0286530000
C   	    0.3191100000 	   -0.2329650000 	   -0.0144210000
C   	   -0.4548410000 	   -1.5242950000 	    0.0054120000
C   	   -1.9231930000 	   -1.3002780000 	   -0.3584240000
C   	   -2.4902210000 	   -0.0920080000 	    0.3829080000
C   	   -1.7457850000 	    1.1758080000 	   -0.0299830000
C   	   -0.2530460000 	    1.0051480000 	   -0.0351800000
O   	    0.3990340000 	    2.1559710000 	   -0.0706340000
O   	    2.4544140000 	    0.6590220000 	   -0.0220610000
H   	   -0.3746020000 	   -1.9875640000 	    0.9980170000
H   	    0.0087700000 	   -2.2290990000 	   -0.6918800000
H   	   -2.4975430000 	   -2.2033000000 	   -0.1262340000
H   	   -2.0125730000 	   -1.1343090000 	   -1.4405090000
H   	   -2.3841780000 	   -0.2440840000 	    1.4650430000
H   	   -3.5597150000 	    0.0275620000 	    0.1803460000
H   	   -1.9752770000 	    2.0190650000 	    0.6303450000
H   	   -2.0408670000 	    1.4880460000 	   -1.0411050000
H   	    1.3632140000 	    1.9316810000 	   -0.0838410000
