20
tauto -498.310262897
C   	    1.3210190000 	    2.2399590000 	   -0.3709080000
C   	    0.3259810000 	    1.3017700000 	    0.2617390000
C   	   -0.0033590000 	    0.0331820000 	   -0.5321760000
C   	    1.1085030000 	   -0.9826020000 	   -0.2012100000
C   	    1.0310160000 	   -1.7024770000 	    1.1182930000
O   	    2.0310650000 	   -1.1132250000 	   -0.9748000000
C   	   -1.4269640000 	   -0.4750230000 	   -0.2867320000
C   	   -2.5364090000 	    0.5453950000 	   -0.3708640000
O   	   -1.6500120000 	   -1.6482250000 	   -0.0859330000
O   	   -0.1641790000 	    1.4905260000 	    1.3545600000
H   	    2.1750200000 	    1.6779510000 	   -0.7648260000
H   	    1.6499460000 	    2.9829470000 	    0.3572770000
H   	    0.8503300000 	    2.7477010000 	   -1.2216900000
H   	    0.0973320000 	    0.2463840000 	   -1.6041630000
H   	    0.6793730000 	   -1.0300210000 	    1.9078860000
H   	    2.0134120000 	   -2.1096860000 	    1.3635510000
H   	    0.3002020000 	   -2.5115520000 	    1.0335170000
H   	   -2.3691180000 	    1.2563370000 	   -1.1876810000
H   	   -2.5608680000 	    1.1146320000 	    0.5640130000
H   	   -3.4893300000 	    0.0314820000 	   -0.5073500000
