27
tauto -739.457886093
C   	   -2.8245860000 	    0.0668270000 	    0.9373480000
N   	   -2.0741470000 	   -0.8902960000 	    0.1441120000
C   	   -2.8792000000 	   -1.8981820000 	   -0.5263270000
C   	   -0.7857610000 	   -0.7313400000 	   -0.2593410000
C   	    0.0191450000 	    0.4096290000 	    0.3862740000
C   	    1.4668270000 	    0.4289240000 	   -0.1462980000
N   	    2.3147630000 	   -0.5015480000 	    0.3669000000
C   	    3.6470730000 	   -0.5779580000 	   -0.2095760000
C   	    1.8936810000 	   -1.6790870000 	    1.1023640000
O   	    1.7947430000 	    1.2926920000 	   -0.9369240000
N   	   -0.5649330000 	    1.7482800000 	    0.0337360000
O   	   -0.3677950000 	    2.6469670000 	    0.8270540000
O   	   -1.1936940000 	    1.8303500000 	   -1.0013770000
O   	   -0.2256490000 	   -1.4823950000 	   -1.0422170000
H   	   -3.5212530000 	   -0.4798860000 	    1.5804810000
H   	   -3.3957580000 	    0.7511310000 	    0.2977780000
H   	   -2.1754490000 	    0.6595050000 	    1.5842790000
H   	   -3.4535600000 	   -2.4628050000 	    0.2158490000
H   	   -2.2186680000 	   -2.5698970000 	   -1.0721660000
H   	   -3.5762950000 	   -1.4273310000 	   -1.2307110000
H   	   -0.0005910000 	    0.3704150000 	    1.4775300000
H   	    3.8840940000 	    0.3768060000 	   -0.6765560000
H   	    3.6980730000 	   -1.3695910000 	   -0.9680840000
H   	    4.3725680000 	   -0.7947310000 	    0.5811380000
H   	    2.6947360000 	   -1.9665580000 	    1.7904010000
H   	    1.6760870000 	   -2.5139350000 	    0.4261980000
H   	    1.0023320000 	   -1.4819670000 	    1.7016700000
