16
tauto -474.954909882
O   	   -2.1322830000 	   -1.3213330000 	    0.0409950000
N   	   -1.5333840000 	   -0.2620480000 	   -0.0093740000
C   	   -0.1221050000 	   -0.2764950000 	    0.0018460000
C   	    0.7008310000 	   -1.5259280000 	    0.0891320000
C   	    2.1244360000 	   -0.9785810000 	   -0.1858130000
C   	    2.0791450000 	    0.5362780000 	    0.1166060000
C   	    0.6185230000 	    0.8594400000 	    0.0187430000
O   	    0.2042800000 	    2.1096890000 	   -0.0050480000
O   	   -2.1037220000 	    0.8437610000 	   -0.0719640000
H   	    0.3950560000 	   -2.2804380000 	   -0.6413940000
H   	    0.6175410000 	   -1.9871440000 	    1.0813330000
H   	    2.3675670000 	   -1.1254570000 	   -1.2427240000
H   	    2.8881730000 	   -1.4945990000 	    0.4009440000
H   	    2.6711280000 	    1.1421930000 	   -0.5760510000
H   	    2.4244990000 	    0.7740730000 	    1.1309770000
H   	   -0.7814500000 	    2.0604940000 	   -0.0424170000
