20
tauto -627.344947246
O   	    3.1829420000 	   -1.3789630000 	    0.0000790000
N   	    2.6068090000 	   -0.3043650000 	    0.0000150000
C   	    1.2035200000 	   -0.2833020000 	   -0.0000050000
C   	    0.3337240000 	   -1.5031760000 	    0.0000000000
C   	   -1.0428420000 	   -0.8756820000 	   -0.0000130000
C   	   -0.9446230000 	    0.5225000000 	   -0.0000190000
C   	   -2.0671650000 	    1.3423360000 	   -0.0000320000
C   	   -3.3161870000 	    0.7314330000 	   -0.0000400000
C   	   -3.4254050000 	   -0.6617510000 	   -0.0000360000
C   	   -2.2933590000 	   -1.4758440000 	   -0.0000230000
C   	    0.4755120000 	    0.8722080000 	   -0.0000070000
O   	    0.9055880000 	    2.1171560000 	   -0.0000010000
O   	    3.1995710000 	    0.7920750000 	    0.0000550000
H   	    0.5010380000 	   -2.1321820000 	    0.8823730000
H   	    0.5010450000 	   -2.1321970000 	   -0.8823610000
H   	   -1.9633540000 	    2.4237810000 	   -0.0000350000
H   	   -4.2160850000 	    1.3402890000 	   -0.0000500000
H   	   -4.4113960000 	   -1.1191210000 	   -0.0000430000
H   	   -2.3934320000 	   -2.5585440000 	   -0.0000210000
H   	    1.8906540000 	    2.0540640000 	    0.0000150000
