32
tauto -618.423578417
C   	   -2.0610540000 	   -1.5466530000 	    1.1082600000
C   	   -0.9088490000 	   -0.6046680000 	    0.7433750000
C   	   -0.2735050000 	   -0.1253450000 	    2.0529720000
C   	    0.0891860000 	   -1.2237820000 	   -0.2810330000
C   	   -0.8070430000 	   -1.4470300000 	   -1.5156860000
C   	   -1.7145830000 	   -0.1850570000 	   -1.5027210000
C   	    1.0248130000 	   -0.0400820000 	   -0.6506970000
C   	    2.3356660000 	    0.0684860000 	    0.1263720000
C   	    3.4185990000 	   -0.8970330000 	   -0.3090500000
O   	    2.5259610000 	    0.8747250000 	    1.0084210000
C   	   -1.3154520000 	    0.5656730000 	   -0.1988450000
C   	   -2.3126960000 	    1.5935610000 	    0.2888380000
C   	    0.0599820000 	    1.1508090000 	   -0.5216150000
O   	    0.3346590000 	    2.3110960000 	   -0.6973860000
H   	   -1.6710220000 	   -2.4317380000 	    1.6257900000
H   	   -2.6440110000 	   -1.8933030000 	    0.2511340000
H   	   -2.7528070000 	   -1.0462690000 	    1.7952970000
H   	    0.1939500000 	   -0.9652830000 	    2.5818220000
H   	   -1.0462030000 	    0.2848890000 	    2.7133160000
H   	    0.4888940000 	    0.6457750000 	    1.9161480000
H   	    0.6110530000 	   -2.1217780000 	    0.0690180000
H   	   -1.3921960000 	   -2.3665280000 	   -1.4231360000
H   	   -0.2197620000 	   -1.5350550000 	   -2.4354870000
H   	   -2.7775330000 	   -0.4465210000 	   -1.4657430000
H   	   -1.5764290000 	    0.4473850000 	   -2.3866980000
H   	    1.3179690000 	   -0.1189120000 	   -1.7071730000
H   	    3.8268680000 	   -0.5672690000 	   -1.2721890000
H   	    3.0214360000 	   -1.9077280000 	   -0.4529800000
H   	    4.2206370000 	   -0.9082860000 	    0.4309670000
H   	   -3.2918630000 	    1.1367110000 	    0.4726000000
H   	   -2.4351480000 	    2.3864040000 	   -0.4562120000
H   	   -1.9691780000 	    2.0676620000 	    1.2142350000
