21
tauto -573.513935549
C   	   -3.7339300000 	   -0.4139230000 	    0.8876390000
C   	   -3.0458770000 	   -0.5345890000 	   -0.4590750000
O   	   -1.6168040000 	   -0.4688150000 	   -0.3242560000
C   	   -1.0954280000 	    0.7595310000 	   -0.2098150000
C   	    0.3742950000 	    0.7709020000 	   -0.0726620000
C   	    1.2144910000 	   -0.2781280000 	   -0.0538470000
C   	    2.7093700000 	   -0.1003770000 	    0.0955750000
C   	    3.3191890000 	    1.2660300000 	    0.2345210000
O   	    3.3774420000 	   -1.1191020000 	    0.0962170000
O   	    0.8633530000 	   -1.5601000000 	   -0.1594310000
O   	   -1.7506860000 	    1.7813560000 	   -0.2198390000
H   	   -4.8138860000 	   -0.5513090000 	    0.7680370000
H   	   -3.5570150000 	    0.5749490000 	    1.3185830000
H   	   -3.3629530000 	   -1.1769780000 	    1.5788460000
H   	   -3.3748180000 	    0.2529380000 	   -1.1424120000
H   	   -3.2273410000 	   -1.5103290000 	   -0.9155330000
H   	    0.7849270000 	    1.7689140000 	    0.0219570000
H   	    2.9155860000 	    1.7800310000 	    1.1126240000
H   	    3.0918530000 	    1.8793540000 	   -0.6433640000
H   	    4.3996570000 	    1.1578750000 	    0.3367100000
H   	    1.7048860000 	   -2.0588360000 	   -0.1109950000
