11
tauto -281.482293325
N   	   -2.0647530000 	    0.0081440000 	   -0.0894140000
C   	   -0.6700480000 	    0.0242290000 	   -0.0132570000
N   	    0.0207490000 	   -1.1056830000 	    0.0074550000
N   	    1.3104330000 	   -0.7051370000 	    0.0095060000
H   	    2.0347920000 	   -1.4030160000 	    0.0171470000
C   	    1.4467010000 	    0.6363920000 	    0.0070350000
C   	    0.1762240000 	    1.1618710000 	   -0.0113170000
H   	   -2.4265200000 	   -0.9175350000 	    0.1051100000
H   	   -2.5001160000 	    0.6900960000 	    0.5177260000
H   	    2.4188500000 	    1.1104490000 	    0.0112830000
H   	   -0.1092760000 	    2.2037810000 	   -0.0388600000
