19
tauto -457.139886499
C   	    1.8905610000 	    1.1598580000 	    0.0680410000
C   	    3.1541890000 	    0.6233930000 	    0.0382760000
N   	    2.9924650000 	   -0.7171520000 	   -0.0415310000
H   	    3.7072740000 	   -1.4251780000 	   -0.0868830000
N   	    1.7101830000 	   -1.0928970000 	   -0.0670770000
C   	    1.0200500000 	    0.0424370000 	   -0.0002150000
C   	   -0.4570210000 	    0.0236790000 	   -0.0003980000
C   	   -1.1903550000 	    1.2113910000 	   -0.0421700000
C   	   -2.5810890000 	    1.1864460000 	   -0.0403940000
C   	   -3.2583780000 	   -0.0278720000 	    0.0016630000
C   	   -2.5341470000 	   -1.2170880000 	    0.0414410000
C   	   -1.1454390000 	   -1.1927150000 	    0.0411320000
H   	    1.6340170000 	    2.2072410000 	    0.1382840000
H   	    4.1341670000 	    1.0790700000 	    0.0695450000
H   	   -0.6727740000 	    2.1669970000 	   -0.0817330000
H   	   -3.1361290000 	    2.1207170000 	   -0.0739230000
H   	   -4.3453000000 	   -0.0483750000 	    0.0028750000
H   	   -3.0550850000 	   -2.1708510000 	    0.0746520000
H   	   -0.5749400000 	   -2.1164640000 	    0.0731920000
