15
tauto -304.761098549
C   	    2.5619780000 	   -0.4673250000 	    0.0000290000
C   	    1.0993090000 	   -0.1586740000 	    0.0000050000
C   	   -0.0151120000 	   -0.9687340000 	   -0.0000220000
C   	   -1.1219230000 	   -0.0867660000 	   -0.0000810000
C   	   -2.5805830000 	   -0.4327220000 	    0.0000230000
N   	   -0.7235700000 	    1.1784760000 	    0.0000410000
N   	    0.6187670000 	    1.1077720000 	    0.0000020000
H   	    1.1494100000 	    1.9643850000 	   -0.0001980000
H   	    2.7131750000 	   -1.5493690000 	   -0.0006260000
H   	    3.0607360000 	   -0.0595920000 	    0.8865540000
H   	    3.0609940000 	   -0.0584950000 	   -0.8858450000
H   	   -0.0313790000 	   -2.0507770000 	   -0.0000570000
H   	   -2.7196450000 	   -1.5175840000 	   -0.0041870000
H   	   -3.0816710000 	   -0.0199100000 	   -0.8811940000
H   	   -3.0800090000 	   -0.0270630000 	    0.8855250000
