19
tauto -419.259087756
C   	    3.7646410000 	   -0.2722860000 	    0.0001280000
C   	    2.4158400000 	    0.4151800000 	   -0.0000760000
O   	    1.4191240000 	   -0.6045710000 	    0.0001080000
C   	    0.1462400000 	   -0.1702710000 	    0.0000340000
N   	   -0.1797570000 	    1.1091520000 	    0.0000990000
N   	   -1.5338180000 	    1.0889870000 	   -0.0000940000
H   	   -2.0295740000 	    1.9649310000 	   -0.0003670000
C   	   -2.0571000000 	   -0.1595580000 	   -0.0003770000
C   	   -3.5302010000 	   -0.4124990000 	    0.0003870000
C   	   -0.9845500000 	   -1.0219470000 	   -0.0003060000
H   	    4.5671120000 	    0.4723370000 	   -0.0001370000
H   	    3.8751030000 	   -0.9032560000 	   -0.8869050000
H   	    3.8751450000 	   -0.9026690000 	    0.8875730000
H   	    2.2846000000 	    1.0520790000 	   -0.8837030000
H   	    2.2845380000 	    1.0524920000 	    0.8832440000
H   	   -4.0087540000 	    0.0032790000 	    0.8940890000
H   	   -3.7227590000 	   -1.4876750000 	   -0.0145220000
H   	   -4.0137870000 	    0.0284340000 	   -0.8784180000
H   	   -0.9988090000 	   -2.1020740000 	   -0.0005030000
