13
tauto -232.379926346
C   	    2.0382840000 	   -0.1318160000 	    0.0000010000
C   	    0.6578960000 	   -0.7367510000 	    0.0000010000
C   	   -0.4650930000 	   -0.0131770000 	    0.0000000000
C   	   -1.8555730000 	   -0.5644870000 	   -0.0000020000
O   	   -0.4813080000 	    1.3542180000 	    0.0000020000
H   	    2.8057180000 	   -0.9099250000 	   -0.0005750000
H   	    2.2223500000 	    0.4912200000 	    0.8871140000
H   	    2.2219550000 	    0.4921140000 	   -0.8865680000
H   	    0.5639920000 	   -1.8181180000 	    0.0000140000
H   	   -1.8423690000 	   -1.6568910000 	    0.0000000000
H   	   -2.4022260000 	   -0.2150470000 	   -0.8826360000
H   	   -2.4022280000 	   -0.2150470000 	    0.8826320000
H   	    0.4301910000 	    1.6753340000 	    0.0000020000
