15
tauto -399.801615559
C   	   -3.3080130000 	   -0.3260780000 	    0.0002960000
C   	   -1.8404000000 	   -0.6916510000 	   -0.0000970000
O   	   -1.0925130000 	    0.5299290000 	   -0.0001880000
C   	    0.2422950000 	    0.4578710000 	   -0.0001230000
O   	    0.7970770000 	    1.6712880000 	   -0.0000710000
C   	    0.9877760000 	   -0.6683590000 	   -0.0002130000
C   	    2.4089100000 	   -0.6025570000 	    0.0000420000
N   	    3.5687150000 	   -0.5780970000 	    0.0002790000
H   	   -3.9151020000 	   -1.2362980000 	   -0.0008120000
H   	   -3.5602690000 	    0.2600030000 	   -0.8879100000
H   	   -3.5605000000 	    0.2580400000 	    0.8897190000
H   	   -1.5684690000 	   -1.2705320000 	   -0.8911260000
H   	   -1.5679480000 	   -1.2706840000 	    0.8906670000
H   	    0.0846530000 	    2.3271350000 	    0.0006960000
H   	    0.5267060000 	   -1.6460820000 	   -0.0005420000
