18
tauto -402.021728803
N   	    3.1290490000 	   -0.7226430000 	    0.0627570000
C   	    1.9722160000 	   -0.6175300000 	    0.0472440000
C   	    0.5592570000 	   -0.3972960000 	    0.0212510000
C   	   -0.3855330000 	   -1.5805780000 	    0.0588900000
C   	   -1.8026090000 	   -1.1719440000 	   -0.3468060000
C   	   -2.2196140000 	    0.1170010000 	    0.3607590000
C   	   -1.3099010000 	    1.2758420000 	   -0.0488570000
C   	    0.1377830000 	    0.8858120000 	   -0.0337770000
O   	    0.9576920000 	    1.9514330000 	   -0.0915820000
H   	   -0.3943560000 	   -2.0128670000 	    1.0690090000
H   	   -0.0124640000 	   -2.3652470000 	   -0.6092800000
H   	   -2.5011580000 	   -1.9825940000 	   -0.1127620000
H   	   -1.8421300000 	   -1.0174840000 	   -1.4334650000
H   	   -2.1570120000 	   -0.0293360000 	    1.4471570000
H   	   -3.2611560000 	    0.3671600000 	    0.1324830000
H   	   -1.4351190000 	    2.1402360000 	    0.6127480000
H   	   -1.5540680000 	    1.6252770000 	   -1.0613430000
H   	    1.8830000000 	    1.6540490000 	   -0.1034050000
