15
tauto -362.707715354
N   	   -2.9612370000 	   -0.5163950000 	   -0.0359760000
C   	   -1.8002050000 	   -0.4994250000 	   -0.0100300000
C   	   -0.3817250000 	   -0.3879540000 	    0.0152710000
C   	    0.6132790000 	   -1.5223960000 	    0.1221090000
C   	    1.9556310000 	   -0.8167850000 	   -0.1889810000
C   	    1.7298260000 	    0.6798420000 	    0.1044950000
C   	    0.2388390000 	    0.8083530000 	    0.0112310000
O   	   -0.3016300000 	    2.0310450000 	   -0.0273120000
H   	    0.4042840000 	   -2.3347220000 	   -0.5813570000
H   	    0.6037840000 	   -1.9565950000 	    1.1302210000
H   	    2.1886380000 	   -0.9426950000 	   -1.2512290000
H   	    2.7886600000 	   -1.2349260000 	    0.3820070000
H   	    2.2384560000 	    1.3464250000 	   -0.5990300000
H   	    2.0534610000 	    0.9658120000 	    1.1138980000
H   	   -1.2694480000 	    1.9532910000 	   -0.0487440000
