12
tauto -265.432448436
C   	   -1.4422620000 	    0.0388350000 	    0.0001070000
N   	   -0.5907890000 	   -1.1463680000 	   -0.0001450000
C   	    0.7666840000 	   -1.0995490000 	    0.0000340000
N   	    1.5012550000 	   -0.0458590000 	    0.0000930000
C   	    0.7759160000 	    1.1588620000 	   -0.0000580000
C   	   -0.5564100000 	    1.2571620000 	   -0.0000360000
H   	   -2.1021170000 	    0.0304350000 	    0.8825580000
H   	   -2.1024740000 	    0.0305370000 	   -0.8820760000
H   	   -1.0321790000 	   -2.0515990000 	   -0.0001340000
H   	    1.2476830000 	   -2.0788460000 	   -0.0000280000
H   	    1.3935440000 	    2.0541290000 	   -0.0001310000
H   	   -1.0412900000 	    2.2290760000 	   -0.0001100000
