12
tauto -265.435097487
N   	    2.0696720000 	    0.0071890000 	    0.0688780000
C   	    0.7001440000 	    0.0913340000 	    0.0017900000
C   	   -0.1162350000 	    1.1706270000 	   -0.0014410000
C   	   -1.4710160000 	    0.6311930000 	   -0.0068520000
N   	   -1.5584880000 	   -0.6536820000 	   -0.0078740000
C   	   -0.1835990000 	   -1.1309880000 	    0.0077930000
H   	    2.5840690000 	    0.8418490000 	   -0.1711080000
H   	    2.4896640000 	   -0.8360020000 	   -0.2931570000
H   	    0.1593710000 	    2.2185360000 	    0.0031370000
H   	   -2.3722130000 	    1.2441340000 	   -0.0147100000
H   	   -0.0033520000 	   -1.7755700000 	   -0.8628370000
H   	   -0.0115870000 	   -1.7404900000 	    0.9039050000
