12
tauto -265.428995631
N   	    2.1107460000 	   -0.1375450000 	   -0.0270610000
C   	    0.8461660000 	    0.0200280000 	    0.0128930000
C   	   -0.0093290000 	    1.2095940000 	    0.0365360000
C   	   -1.2918960000 	    0.7965360000 	   -0.0037000000
N   	   -1.4300180000 	   -0.5708250000 	   -0.1276680000
C   	   -0.1067800000 	   -1.1722950000 	    0.0393810000
H   	    2.5711470000 	    0.7749570000 	   -0.0415430000
H   	    0.3370930000 	    2.2349940000 	    0.0430800000
H   	   -2.1860840000 	    1.4122920000 	    0.0112060000
H   	   -2.2186180000 	   -1.0120050000 	    0.3215830000
H   	    0.1232380000 	   -1.8798810000 	   -0.7619710000
H   	   -0.0208380000 	   -1.6949390000 	    1.0000950000
