21
tauto -383.352245382
C   	    2.4877380000 	   -1.3747020000 	    0.2770780000
C   	    1.3443480000 	   -0.4339340000 	   -0.0309370000
N   	    1.6449810000 	    0.8033890000 	   -0.1914010000
C   	    0.5890250000 	    1.7229500000 	   -0.5459060000
C   	   -0.5535640000 	    1.7792050000 	    0.4851450000
N   	   -1.5318690000 	    0.7302750000 	    0.2982920000
C   	   -1.2163960000 	   -0.5598040000 	   -0.0160360000
C   	   -2.4276120000 	   -1.4456130000 	   -0.1708520000
C   	    0.0342300000 	   -1.0836190000 	   -0.1282700000
H   	    3.4248320000 	   -0.8158290000 	    0.3048690000
H   	    2.5589490000 	   -2.1578050000 	   -0.4879170000
H   	    2.3335150000 	   -1.8758890000 	    1.2399640000
H   	    0.1541490000 	    1.4673520000 	   -1.5241540000
H   	    1.0304340000 	    2.7222470000 	   -0.6355990000
H   	   -1.0833260000 	    2.7350110000 	    0.4180180000
H   	   -0.1149980000 	    1.7156470000 	    1.4886280000
H   	   -2.4811380000 	    1.0142510000 	    0.1165240000
H   	   -3.1083610000 	   -1.0415810000 	   -0.9307390000
H   	   -2.9830590000 	   -1.5090670000 	    0.7717680000
H   	   -2.1426860000 	   -2.4539960000 	   -0.4758440000
H   	    0.0732930000 	   -2.1628860000 	   -0.2550910000
