24
tauto -422.665798221
C   	   -2.8995670000 	   -1.5684130000 	    0.4395920000
C   	   -2.5441090000 	   -0.4407190000 	   -0.5339170000
C   	   -1.2506440000 	    0.2532140000 	   -0.1854950000
N   	   -1.2574150000 	    1.4970840000 	    0.0639820000
C   	    0.0002370000 	    2.1532730000 	    0.3715930000
N   	    1.2576570000 	    1.4968130000 	    0.0635920000
C   	    1.2505340000 	    0.2529400000 	   -0.1858450000
C   	    2.5437500000 	   -0.4413530000 	   -0.5344640000
C   	    2.8997040000 	   -1.5680070000 	    0.4400880000
C   	   -0.0001460000 	   -0.5964930000 	   -0.1383880000
H   	   -3.8585050000 	   -2.0219940000 	    0.1706100000
H   	   -2.9831570000 	   -1.1875600000 	    1.4634760000
H   	   -2.1462240000 	   -2.3643420000 	    0.4340750000
H   	   -3.3310900000 	    0.3185980000 	   -0.5482440000
H   	   -2.4597870000 	   -0.8522100000 	   -1.5499240000
H   	    0.0004410000 	    2.3966410000 	    1.4429580000
H   	    0.0002580000 	    3.1138190000 	   -0.1556080000
H   	    3.3307680000 	    0.3179020000 	   -0.5500010000
H   	    2.4588130000 	   -0.8539370000 	   -1.5499690000
H   	    2.9837840000 	   -1.1859990000 	    1.4635000000
H   	    3.8585120000 	   -2.0218840000 	    0.1711380000
H   	    2.1463570000 	   -2.3639430000 	    0.4358140000
H   	   -0.0000890000 	   -1.1837180000 	    0.7920080000
H   	   -0.0003330000 	   -1.3353030000 	   -0.9518290000
