13
tauto -232.370327144
C   	    1.7786260000 	   -0.6868380000 	    0.0000000000
C   	    0.4207340000 	   -0.0141730000 	    0.0000000000
C   	    0.3306860000 	    1.4965490000 	    0.0000000000
C   	   -0.6911810000 	   -0.7513000000 	    0.0000000000
O   	   -1.9719010000 	   -0.2811260000 	    0.0000000000
H   	    2.5809020000 	    0.0573530000 	    0.0000000000
H   	    1.9260360000 	   -1.3184990000 	   -0.8836540000
H   	    1.9260350000 	   -1.3184990000 	    0.8836540000
H   	    1.3242960000 	    1.9527160000 	   -0.0000060000
H   	   -0.1931840000 	    1.8820250000 	    0.8863710000
H   	   -0.1931940000 	    1.8820240000 	   -0.8863660000
H   	   -0.6809730000 	   -1.8384310000 	    0.0000000000
H   	   -1.9479000000 	    0.6848890000 	    0.0000010000
