20
tauto -494.466688608
C   	    3.5711370000 	   -0.2206220000 	    0.0000990000
O   	    2.3477370000 	   -0.9481800000 	   -0.0000280000
C   	    1.2266790000 	   -0.2034940000 	   -0.0001220000
C   	   -0.0000120000 	   -1.0711800000 	   -0.0000310000
N   	    1.2554620000 	    1.0591320000 	   -0.0000940000
C   	    0.0000430000 	    1.7851440000 	    0.0000010000
N   	   -1.2554060000 	    1.0591760000 	    0.0000400000
C   	   -1.2266780000 	   -0.2034550000 	    0.0000620000
O   	   -2.3477540000 	   -0.9481280000 	    0.0000030000
C   	   -3.5711870000 	   -0.2206220000 	    0.0000140000
H   	    4.3610270000 	   -0.9728300000 	    0.0002660000
H   	    3.6422460000 	    0.4147760000 	    0.8876700000
H   	    3.6424990000 	    0.4146170000 	   -0.8875680000
H   	    0.0000160000 	   -1.7277800000 	    0.8771740000
H   	   -0.0000680000 	   -1.7278200000 	   -0.8772020000
H   	    0.0000220000 	    2.4451420000 	   -0.8761970000
H   	    0.0000940000 	    2.4450610000 	    0.8762640000
H   	   -4.3610490000 	   -0.9728630000 	    0.0001300000
H   	   -3.6425230000 	    0.4146060000 	   -0.8876620000
H   	   -3.6424070000 	    0.4147730000 	    0.8875780000
