15
tauto -379.742768189
C   	    1.6421690000 	    1.0928540000 	   -0.0000630000
N   	    2.4089950000 	    0.0271160000 	    0.0001050000
N   	    1.5737240000 	   -1.0327840000 	   -0.0001720000
H   	    1.9660400000 	   -1.9595790000 	    0.0007090000
C   	    0.2604100000 	   -0.6669120000 	   -0.0000030000
C   	    0.2565890000 	    0.7396280000 	    0.0000170000
C   	   -0.9685450000 	    1.4311510000 	    0.0000200000
C   	   -2.1357360000 	    0.6993590000 	    0.0000290000
C   	   -2.1099790000 	   -0.7159880000 	    0.0000110000
C   	   -0.9258230000 	   -1.4201520000 	   -0.0000300000
H   	    2.0901670000 	    2.0785190000 	   -0.0000800000
H   	   -0.9915200000 	    2.5179970000 	   -0.0000160000
H   	   -3.0951320000 	    1.2092620000 	    0.0000190000
H   	   -3.0514050000 	   -1.2594950000 	    0.0000150000
H   	   -0.9116890000 	   -2.5066760000 	   -0.0000620000
