15
tauto -358.839790973
N   	    2.7615970000 	    0.3554400000 	   -0.0299470000
N   	    1.8199990000 	   -0.6957890000 	   -0.0223400000
C   	    0.5895810000 	   -0.3156830000 	   -0.0410270000
C   	   -0.4613500000 	   -1.3317190000 	   -0.0272320000
C   	   -1.7606190000 	   -0.9948090000 	    0.0300170000
N   	   -2.1604770000 	    0.3287140000 	    0.0570880000
C   	   -1.2226770000 	    1.3280750000 	   -0.0226300000
C   	    0.0985530000 	    1.0666340000 	   -0.0686360000
H   	    3.6636860000 	   -0.0844460000 	    0.1162390000
H   	    2.6095170000 	    0.9700400000 	    0.7714890000
H   	   -0.1622240000 	   -2.3738580000 	   -0.0496470000
H   	   -2.5607420000 	   -1.7269460000 	    0.0562240000
H   	   -3.1390620000 	    0.5580950000 	    0.0840120000
H   	   -1.6196040000 	    2.3381820000 	   -0.0564980000
H   	    0.7996700000 	    1.8853870000 	   -0.1783830000
