18
tauto -456.155727597
C   	   -3.4817640000 	   -0.5776950000 	    0.1417560000
C   	   -2.1522540000 	    0.1258690000 	   -0.0342380000
N   	   -1.0875840000 	   -0.7673700000 	   -0.0299620000
C   	    0.1529440000 	   -0.3408280000 	   -0.0203900000
C   	    1.1891570000 	   -1.3544410000 	   -0.0635290000
C   	    2.5030270000 	   -1.0387470000 	   -0.0334070000
N   	    2.9080600000 	    0.2655930000 	    0.0405910000
C   	    1.9835810000 	    1.2696640000 	    0.0807500000
C   	    0.6516950000 	    1.0234200000 	    0.0496190000
O   	   -2.1014910000 	    1.3414240000 	   -0.1791910000
H   	   -3.4847200000 	   -1.1324830000 	    1.0858310000
H   	   -3.6205700000 	   -1.3113830000 	   -0.6587390000
H   	   -4.2953970000 	    0.1496400000 	    0.1309750000
H   	    0.8739160000 	   -2.3901700000 	   -0.1198230000
H   	    3.2931420000 	   -1.7813670000 	   -0.0646580000
H   	    3.8907770000 	    0.4871080000 	    0.0586780000
H   	    2.3874830000 	    2.2755260000 	    0.1362620000
H   	   -0.0543540000 	    1.8407280000 	    0.0672240000
