12
tauto -265.442351723
N   	    2.1205410000 	    0.0084810000 	   -0.0940560000
C   	    0.7116090000 	   -0.0042470000 	   -0.0138210000
C   	   -0.1135940000 	   -1.1037220000 	    0.0027570000
N   	   -1.4157210000 	   -0.6482010000 	    0.0091770000
H   	   -2.2311620000 	   -1.2360790000 	    0.0223220000
C   	   -1.4259920000 	    0.7139270000 	    0.0073690000
C   	   -0.1237390000 	    1.1508460000 	   -0.0101960000
H   	    2.5241990000 	   -0.8693760000 	    0.2091870000
H   	    2.5178180000 	    0.7535990000 	    0.4652150000
H   	    0.1140230000 	   -2.1606890000 	   -0.0045990000
H   	   -2.3545810000 	    1.2679380000 	    0.0166170000
H   	    0.2062630000 	    2.1818270000 	   -0.0312430000
