11
tauto -285.287747826
N   	   -2.1011210000 	   -0.1039240000 	    0.0000460000
C   	   -0.8360840000 	    0.0365490000 	   -0.0003450000
C   	    0.0539780000 	    1.2004720000 	    0.0001460000
C   	    1.3098070000 	    0.7295440000 	   -0.0001890000
O   	    1.4363880000 	   -0.6117790000 	    0.0000770000
C   	    0.1051910000 	   -1.1571660000 	    0.0000570000
H   	   -2.5551130000 	    0.8114310000 	    0.0003570000
H   	   -0.2437590000 	    2.2402880000 	    0.0001280000
H   	    2.2520660000 	    1.2665580000 	    0.0002740000
H   	   -0.0170170000 	   -1.7763400000 	    0.8926750000
H   	   -0.0167870000 	   -1.7766290000 	   -0.8923800000
