10
tauto -301.285061041
N   	    2.0855590000 	   -0.1212780000 	   -0.0004230000
C   	    0.8223230000 	   -0.0095610000 	    0.0000200000
C   	   -0.0774420000 	    1.1573980000 	    0.0005760000
N   	   -1.3143290000 	    0.8253940000 	   -0.0004470000
O   	   -1.4463760000 	   -0.5379170000 	   -0.0002970000
C   	   -0.1512070000 	   -1.1591460000 	    0.0003870000
H   	    2.5257700000 	    0.8011070000 	   -0.0002230000
H   	    0.2008770000 	    2.2047230000 	    0.0008550000
H   	   -0.0579510000 	   -1.7824910000 	   -0.8935780000
H   	   -0.0583420000 	   -1.7809600000 	    0.8955130000
