21
tauto -512.440742864
N   	    4.0590350000 	   -0.6705250000 	   -0.0076700000
C   	    2.8690230000 	   -0.2265700000 	   -0.0030470000
C   	    1.5295070000 	   -0.9529620000 	    0.0018160000
C   	    2.4859610000 	    1.1925530000 	   -0.0017420000
N   	    1.2083340000 	    1.3573190000 	    0.0051550000
N   	    0.5922650000 	    0.1542190000 	    0.0105080000
C   	   -0.7995180000 	    0.0476990000 	    0.0046240000
C   	   -1.3985360000 	   -1.2155110000 	    0.0042150000
C   	   -2.7857080000 	   -1.3259340000 	   -0.0009110000
C   	   -3.5883320000 	   -0.1919790000 	   -0.0054870000
C   	   -2.9837850000 	    1.0641080000 	   -0.0048520000
C   	   -1.6030500000 	    1.1945130000 	    0.0000840000
H   	    4.0675760000 	   -1.6929210000 	   -0.0081070000
H   	    1.4154460000 	   -1.5849890000 	    0.8919560000
H   	    1.4056780000 	   -1.5785020000 	   -0.8917340000
H   	    3.1658500000 	    2.0341990000 	   -0.0055510000
H   	   -0.7887820000 	   -2.1148940000 	    0.0082040000
H   	   -3.2372900000 	   -2.3148660000 	   -0.0012310000
H   	   -4.6706820000 	   -0.2831110000 	   -0.0095650000
H   	   -3.5972870000 	    1.9618230000 	   -0.0084310000
H   	   -1.1313190000 	    2.1706720000 	    0.0002970000
