14
tauto -324.5905234
C   	    2.5191050000 	    0.3692450000 	    0.2036030000
N   	    1.5433900000 	   -0.5902870000 	   -0.2819810000
C   	    0.1944440000 	   -0.2636090000 	   -0.1119370000
C   	   -0.8590340000 	   -1.1121500000 	    0.0448810000
O   	   -2.0297400000 	   -0.4111240000 	    0.1166300000
C   	   -1.7094030000 	    0.8926910000 	    0.0130260000
C   	   -0.3710150000 	    1.0590110000 	   -0.1275670000
H   	    3.5205060000 	   -0.0486900000 	    0.0700890000
H   	    2.3864900000 	    0.6405570000 	    1.2630490000
H   	    2.4664980000 	    1.2860230000 	   -0.3926070000
H   	    1.7427050000 	   -1.5289940000 	    0.0370610000
H   	   -0.9445910000 	   -2.1866130000 	    0.1080930000
H   	   -2.5348700000 	    1.5885040000 	    0.0571650000
H   	    0.1528710000 	    1.9990840000 	   -0.2340650000
