16
tauto -271.682629345
C   	    1.2441450000 	    1.4938560000 	    0.0000000000
C   	    0.6580630000 	    0.0966350000 	    0.0000000000
C   	    1.6011410000 	   -1.0892760000 	    0.0000000000
C   	   -0.6654150000 	   -0.1110550000 	    0.0000000000
C   	   -1.7353300000 	    0.9353890000 	    0.0000000000
O   	   -1.2304670000 	   -1.3611080000 	    0.0000000000
H   	    2.3375210000 	    1.4514220000 	   -0.0000090000
H   	    0.9477450000 	    2.0726200000 	    0.8835110000
H   	    0.9477310000 	    2.0726260000 	   -0.8835020000
H   	    2.6448590000 	   -0.7640970000 	    0.0000020000
H   	    1.4730330000 	   -1.7272870000 	   -0.8868400000
H   	    1.4730310000 	   -1.7272870000 	    0.8868410000
H   	   -1.3187150000 	    1.9440930000 	   -0.0000010000
H   	   -2.3746730000 	    0.8183870000 	    0.8821210000
H   	   -2.3746750000 	    0.8183850000 	   -0.8821200000
H   	   -0.5277460000 	   -2.0232880000 	    0.0000000000
