17
tauto -438.904675512
N   	   -2.4505380000 	    1.4604700000 	   -0.0014240000
C   	   -1.6007810000 	    0.5165500000 	   -0.0000310000
C   	   -0.1292170000 	    0.4854460000 	    0.0002750000
C   	    0.8363430000 	    1.4870150000 	    0.0006760000
C   	    2.1765890000 	    1.1205940000 	    0.0004730000
C   	    2.5339790000 	   -0.2336960000 	   -0.0002090000
C   	    1.5797150000 	   -1.2451770000 	   -0.0006320000
C   	    0.2450380000 	   -0.8563250000 	   -0.0003540000
O   	   -0.7998440000 	   -1.7194310000 	   -0.0008170000
C   	   -2.0122610000 	   -0.9486820000 	    0.0016240000
H   	   -1.9747850000 	    2.3659900000 	   -0.0020240000
H   	    0.5467350000 	    2.5361190000 	    0.0012260000
H   	    2.9502790000 	    1.8825220000 	    0.0008810000
H   	    3.5871350000 	   -0.5036520000 	   -0.0003760000
H   	    1.8522320000 	   -2.2955820000 	   -0.0011470000
H   	   -2.5903080000 	   -1.2029800000 	    0.8949410000
H   	   -2.5951980000 	   -1.2046110000 	   -0.8879360000
