12
tauto -323.414812804
O   	   -2.3357060000 	   -0.0000010000 	   -0.0004040000
C   	   -1.1092620000 	    0.0000010000 	    0.0000450000
C   	   -0.3054380000 	    1.2282180000 	    0.0003550000
C   	    1.0438850000 	    1.1896980000 	   -0.0000330000
N   	    1.7254080000 	    0.0000000000 	   -0.0001740000
H   	    2.7320810000 	    0.0000000000 	   -0.0012050000
C   	    1.0438850000 	   -1.1896990000 	    0.0000930000
C   	   -0.3054380000 	   -1.2282180000 	    0.0002970000
H   	   -0.8273210000 	    2.1789880000 	    0.0006830000
H   	    1.6622830000 	    2.0822290000 	   -0.0000190000
H   	    1.6622840000 	   -2.0822290000 	   -0.0000300000
H   	   -0.8273230000 	   -2.1789870000 	    0.0004750000
