32
tauto -502.450728264
C   	   -2.4461700000 	   -0.9375880000 	    1.2500020000
C   	   -1.3703590000 	   -1.3570320000 	    0.2337380000
C   	   -1.9960710000 	   -1.8707290000 	   -1.0735040000
C   	   -0.2351840000 	   -0.3393590000 	    0.0591750000
C   	   -0.5161040000 	    1.0979110000 	   -0.0586610000
C   	   -1.8819400000 	    1.5584970000 	   -0.5398460000
N   	    0.4023510000 	    1.9788940000 	    0.1850920000
C   	    0.1133590000 	    3.3856980000 	   -0.0004540000
C   	    1.0701970000 	   -0.8027910000 	    0.0616020000
C   	    1.4210360000 	   -2.2713090000 	   -0.0370500000
N   	    2.1439190000 	    0.0217870000 	    0.1440430000
C   	    3.5213140000 	   -0.3586670000 	   -0.0503900000
H   	   -3.0609550000 	   -1.8054830000 	    1.5180660000
H   	   -3.1277110000 	   -0.1687030000 	    0.8753220000
H   	   -1.9816880000 	   -0.5570010000 	    2.1662810000
H   	   -0.9118250000 	   -2.2323750000 	    0.7049730000
H   	   -2.5242400000 	   -1.0860460000 	   -1.6257820000
H   	   -2.7191090000 	   -2.6709130000 	   -0.8703620000
H   	   -1.2260940000 	   -2.2697970000 	   -1.7439450000
H   	   -1.7576260000 	    2.2753700000 	   -1.3591210000
H   	   -2.4247400000 	    2.0793590000 	    0.2589220000
H   	   -2.5071130000 	    0.7474010000 	   -0.9041810000
H   	    0.9659930000 	    3.9721470000 	    0.3543900000
H   	   -0.7751830000 	    3.7176600000 	    0.5560080000
H   	   -0.0490030000 	    3.6442930000 	   -1.0580690000
H   	    1.7581440000 	   -2.6608320000 	    0.9319790000
H   	    2.2424650000 	   -2.4147890000 	   -0.7459010000
H   	    0.5894300000 	   -2.8832330000 	   -0.3823600000
H   	    1.8906810000 	    1.0090000000 	    0.2378790000
H   	    3.7356550000 	   -0.6984060000 	   -1.0742280000
H   	    3.8352340000 	   -1.1484060000 	    0.6431640000
H   	    4.1433280000 	    0.5181900000 	    0.1453430000
