25
tauto -610.759744705
N   	    0.1064600000 	    2.6233500000 	   -0.0023090000
C   	    0.0083130000 	    1.3468040000 	   -0.0007830000
C   	   -1.2558570000 	    0.5587090000 	   -0.0001880000
C   	   -2.5152100000 	    1.1738050000 	    0.0011160000
C   	   -3.6885470000 	    0.4426550000 	    0.0016790000
C   	   -3.6234740000 	   -0.9542050000 	    0.0009040000
C   	   -2.4001880000 	   -1.5935550000 	   -0.0003250000
C   	   -1.2107110000 	   -0.8469650000 	   -0.0007970000
N   	    0.0000820000 	   -1.5049830000 	   -0.0021010000
C   	    1.2188600000 	   -0.8514440000 	   -0.0007020000
C   	    1.2591730000 	    0.5486190000 	   -0.0001590000
C   	    2.5068730000 	    1.1848130000 	    0.0009280000
C   	    3.6829450000 	    0.4575330000 	    0.0015580000
C   	    3.6275680000 	   -0.9406090000 	    0.0010250000
C   	    2.4094210000 	   -1.5931720000 	   -0.0001310000
H   	   -0.8108890000 	    3.0686010000 	   -0.0031350000
H   	   -2.5775830000 	    2.2593500000 	    0.0019080000
H   	   -4.6493390000 	    0.9485470000 	    0.0027620000
H   	   -4.5368310000 	   -1.5434720000 	    0.0013030000
H   	   -2.3452970000 	   -2.6804810000 	   -0.0009470000
H   	   -0.0033450000 	   -2.5130570000 	   -0.0003780000
H   	    2.5110590000 	    2.2706540000 	    0.0012820000
H   	    4.6423010000 	    0.9667940000 	    0.0024630000
H   	    4.5457060000 	   -1.5228150000 	    0.0015000000
H   	    2.3634320000 	   -2.6806110000 	   -0.0006420000
