18
tauto -473.157107366
N   	    1.9040420000 	    2.0780700000 	    0.0004620000
C   	    1.3930790000 	    0.9035940000 	    0.0000920000
C   	   -0.0336840000 	    0.5151390000 	   -0.0000310000
C   	   -1.0865480000 	    1.4400350000 	   -0.0002740000
C   	   -2.4047320000 	    1.0270850000 	   -0.0002440000
C   	   -2.6986460000 	   -0.3432840000 	    0.0000850000
C   	   -1.6848130000 	   -1.2790220000 	    0.0002300000
C   	   -0.3461170000 	   -0.8532610000 	    0.0001110000
N   	    0.6737900000 	   -1.7775210000 	    0.0000810000
N   	    1.9851700000 	   -1.4827130000 	   -0.0002160000
C   	    2.3183550000 	   -0.2402060000 	   -0.0003700000
H   	    1.1768600000 	    2.7959930000 	    0.0007910000
H   	   -0.8605140000 	    2.5039480000 	   -0.0005810000
H   	   -3.2078310000 	    1.7578480000 	   -0.0004840000
H   	   -3.7332030000 	   -0.6763460000 	    0.0001750000
H   	   -1.9104350000 	   -2.3432150000 	    0.0004150000
H   	    0.4709450000 	   -2.7640420000 	    0.0004850000
H   	    3.3817990000 	   -0.0195130000 	   -0.0006810000
