25
tauto -647.846683115
O   	    0.2081330000 	   -1.8110090000 	   -0.0956560000
C   	    0.4675850000 	   -0.6102480000 	   -0.0619740000
C   	    1.9058330000 	   -0.1677170000 	   -0.0219990000
C   	    2.2666960000 	    1.1801330000 	    0.0079500000
C   	    3.6092720000 	    1.5423370000 	    0.0488230000
C   	    4.5973520000 	    0.5614850000 	    0.0596060000
C   	    4.2415050000 	   -0.7854560000 	    0.0290200000
C   	    2.9007990000 	   -1.1469510000 	   -0.0115330000
N   	   -0.4335380000 	    0.4402220000 	   -0.0647890000
C   	   -1.7290390000 	    0.2261590000 	   -0.0290780000
C   	   -2.5791250000 	    1.3988630000 	   -0.0613450000
C   	   -3.9275760000 	    1.3079400000 	   -0.0185770000
N   	   -4.5436840000 	    0.0901400000 	    0.0587980000
C   	   -3.8011910000 	   -1.0540640000 	    0.0918180000
C   	   -2.4462090000 	   -1.0341470000 	    0.0499350000
H   	    1.4807310000 	    1.9280040000 	   -0.0020490000
H   	    3.8859220000 	    2.5937180000 	    0.0725390000
H   	    5.6466200000 	    0.8460560000 	    0.0921060000
H   	    5.0116670000 	   -1.5528540000 	    0.0371040000
H   	    2.5963140000 	   -2.1892120000 	   -0.0360190000
H   	   -2.0958650000 	    2.3673060000 	   -0.1221240000
H   	   -4.5826470000 	    2.1722790000 	   -0.0419260000
H   	   -5.5496000000 	    0.0366960000 	    0.0887240000
H   	   -4.3661730000 	   -1.9786720000 	    0.1521820000
H   	   -1.8869010000 	   -1.9577940000 	    0.0707690000
