12
tauto -319.543822902
N   	    2.3481760000 	    0.1405280000 	    0.0002360000
C   	    1.0669390000 	    0.0676520000 	   -0.0000230000
C   	    0.2777960000 	   -1.1796990000 	   -0.0002380000
N   	   -1.0094290000 	   -1.2646550000 	   -0.0000090000
N   	   -1.6982020000 	   -0.1130930000 	    0.0000130000
C   	   -1.1122740000 	    1.1240380000 	    0.0000340000
C   	    0.2278130000 	    1.2586220000 	   -0.0001450000
H   	    2.7518740000 	   -0.7993010000 	    0.0002370000
H   	    0.8035720000 	   -2.1336650000 	   -0.0002770000
H   	   -2.6981910000 	   -0.2264020000 	    0.0011710000
H   	   -1.8022420000 	    1.9618920000 	   -0.0001240000
H   	    0.6995270000 	    2.2343420000 	   -0.0004540000
