17
tauto -384.755508428
O   	    2.7611250000 	    0.9214140000 	    0.0000300000
C   	    2.5848610000 	   -0.4303240000 	    0.0000110000
C   	    1.3927740000 	   -1.0327870000 	   -0.0000210000
C   	    0.0472140000 	   -0.4390880000 	   -0.0000350000
C   	   -1.0564830000 	   -1.3034210000 	   -0.0000010000
C   	   -2.3567110000 	   -0.8146800000 	    0.0000180000
C   	   -2.5845460000 	    0.5582310000 	    0.0000210000
C   	   -1.4990440000 	    1.4294850000 	   -0.0000080000
C   	   -0.1966990000 	    0.9423340000 	   -0.0000330000
H   	    3.7040390000 	    1.1167050000 	   -0.0000090000
H   	    3.4984840000 	   -1.0230230000 	    0.0000420000
H   	    1.4282600000 	   -2.1198560000 	    0.0000000000
H   	   -0.8865110000 	   -2.3787730000 	   -0.0000060000
H   	   -3.1938920000 	   -1.5086040000 	    0.0000360000
H   	   -3.5999760000 	    0.9465310000 	    0.0000450000
H   	   -1.6661720000 	    2.5041230000 	   -0.0000100000
H   	    0.6385760000 	    1.6330840000 	   -0.0000440000
