35
tauto -912.120735092
C   	    0.1825790000 	    3.4907870000 	    0.0002980000
C   	    0.2207570000 	    1.9795020000 	    0.0001820000
C   	   -1.0104890000 	    1.1692910000 	    0.0001010000
N   	   -0.9313210000 	   -0.1312360000 	    0.0002930000
C   	   -2.0633010000 	   -0.9324130000 	    0.0002100000
C   	   -1.9268150000 	   -2.3271780000 	    0.0004960000
C   	   -3.0449700000 	   -3.1403970000 	    0.0004100000
C   	   -4.3230180000 	   -2.5673810000 	    0.0000230000
C   	   -4.4809960000 	   -1.1921220000 	   -0.0002620000
C   	   -3.3471660000 	   -0.3751230000 	   -0.0001570000
N   	   -3.4246560000 	    1.0046630000 	   -0.0004190000
C   	   -2.3504080000 	    1.8655320000 	   -0.0002500000
O   	   -2.5287840000 	    3.0698690000 	   -0.0004110000
N   	    1.4270330000 	    1.4876740000 	    0.0001570000
N   	    1.6884580000 	    0.1944450000 	    0.0000810000
C   	    3.0119060000 	   -0.2576960000 	   -0.0000120000
C   	    3.2356730000 	   -1.6369760000 	   -0.0004430000
C   	    4.5339190000 	   -2.1311150000 	   -0.0005400000
C   	    5.6196450000 	   -1.2603600000 	   -0.0002290000
C   	    5.3888360000 	    0.1134320000 	    0.0001910000
C   	    4.0964580000 	    0.6225230000 	    0.0003110000
H   	   -0.3342990000 	    3.8905480000 	    0.8763140000
H   	   -0.3340800000 	    3.8906990000 	   -0.8757730000
H   	    1.2169640000 	    3.8418760000 	    0.0004690000
H   	   -0.9233460000 	   -2.7441840000 	    0.0007970000
H   	   -2.9333540000 	   -4.2205230000 	    0.0006440000
H   	   -5.2024480000 	   -3.2054600000 	   -0.0000530000
H   	   -5.4714340000 	   -0.7430100000 	   -0.0005680000
H   	   -4.3274800000 	    1.4628240000 	   -0.0006440000
H   	    0.9119650000 	   -0.4626760000 	    0.0001770000
H   	    2.3882190000 	   -2.3203320000 	   -0.0007130000
H   	    4.6955290000 	   -3.2062330000 	   -0.0008840000
H   	    6.6345910000 	   -1.6479850000 	   -0.0003200000
H   	    6.2285030000 	    0.8042880000 	    0.0004390000
H   	    3.9086910000 	    1.6905480000 	    0.0006450000
