42
tauto -1157.15663267
C   	   -6.6694150000 	   -0.4451110000 	    0.1404130000
C   	   -5.2978810000 	   -1.0744390000 	   -0.0578620000
C   	   -4.1644270000 	   -0.0790600000 	    0.0756390000
C   	   -2.8003200000 	   -0.5487060000 	   -0.1382980000
C   	   -1.6942420000 	    0.2838600000 	   -0.0360570000
N   	   -1.5663450000 	    1.6091320000 	    0.2621990000
N   	   -0.4024700000 	    2.2393270000 	    0.1643560000
C   	    0.6716740000 	    1.5726040000 	   -0.1005840000
C   	    0.7619280000 	    0.0529190000 	   -0.1906140000
O   	    1.2676920000 	   -0.4374170000 	    1.0626870000
C   	    2.1300330000 	   -1.4629560000 	    0.7548210000
C   	    2.7314840000 	   -2.3300960000 	    1.6389640000
C   	    3.6043810000 	   -3.2794990000 	    1.0922400000
C   	    3.8436590000 	   -3.3340730000 	   -0.2767030000
C   	    3.2139880000 	   -2.4443700000 	   -1.1565490000
C   	    2.3561590000 	   -1.5095670000 	   -0.6153550000
N   	    1.6009980000 	   -0.4796860000 	   -1.2402250000
C   	    1.9219850000 	    2.3949310000 	   -0.2143010000
C   	    1.9033340000 	    3.7896110000 	    0.3729300000
C   	    3.2068440000 	    4.5364960000 	    0.1294320000
O   	    2.9106890000 	    1.9461720000 	   -0.7685930000
N   	   -0.6027830000 	   -0.4362550000 	   -0.3303410000
N   	   -0.9045440000 	   -1.7322290000 	   -0.6039890000
C   	   -2.2157290000 	   -1.7945330000 	   -0.4969070000
O   	   -4.3651270000 	    1.0987000000 	    0.3585400000
H   	   -7.4558330000 	   -1.2002660000 	    0.0491950000
H   	   -6.8504470000 	    0.3363090000 	   -0.6028670000
H   	   -6.7452520000 	    0.0195210000 	    1.1271510000
H   	   -5.2163800000 	   -1.5489550000 	   -1.0453970000
H   	   -5.1214370000 	   -1.8777830000 	    0.6711030000
H   	   -2.4089990000 	    2.1521730000 	    0.4056410000
H   	    2.5390600000 	   -2.2707970000 	    2.7052860000
H   	    4.0994270000 	   -3.9855650000 	    1.7533260000
H   	    4.5250340000 	   -4.0815860000 	   -0.6733300000
H   	    3.3901470000 	   -2.4877190000 	   -2.2273090000
H   	    2.2097930000 	    0.2525880000 	   -1.5979120000
H   	    1.6902920000 	    3.6925930000 	    1.4455180000
H   	    1.0423980000 	    4.3259860000 	   -0.0408160000
H   	    3.3995250000 	    4.6525530000 	   -0.9409040000
H   	    4.0557210000 	    3.9971010000 	    0.5582680000
H   	    3.1628950000 	    5.5314880000 	    0.5821880000
H   	   -2.7166940000 	   -2.7373720000 	   -0.6814670000
