25
tauto -439.869011359
C   	   -3.4371240000 	    0.9274200000 	    0.8113890000
C   	   -2.9711280000 	    0.4067200000 	   -0.5462900000
N   	   -1.5979110000 	   -0.0481670000 	   -0.5442590000
N   	   -1.3593120000 	   -1.2383200000 	   -0.0350100000
C   	   -0.1443570000 	   -1.6360830000 	    0.1922860000
C   	    1.1025660000 	   -0.8932820000 	   -0.0040410000
C   	    2.3737640000 	   -1.6429480000 	    0.3540090000
N   	    1.0678740000 	    0.3126030000 	   -0.4542430000
C   	    2.2983520000 	    1.0664980000 	   -0.6207480000
C   	    2.4935560000 	    2.0325980000 	    0.5465630000
H   	   -4.4840360000 	    1.2479160000 	    0.7688680000
H   	   -2.8297180000 	    1.7805370000 	    1.1333650000
H   	   -3.3457180000 	    0.1383320000 	    1.5646820000
H   	   -3.0567520000 	    1.1880920000 	   -1.3099830000
H   	   -3.5940010000 	   -0.4358700000 	   -0.8636660000
H   	   -0.8094460000 	    0.5964250000 	   -0.6208230000
H   	   -0.0700010000 	   -2.6478340000 	    0.5829020000
H   	    2.9687330000 	   -1.8511390000 	   -0.5424950000
H   	    2.1425120000 	   -2.5982800000 	    0.8308070000
H   	    3.0003040000 	   -1.0633200000 	    1.0395400000
H   	    2.2069500000 	    1.6400170000 	   -1.5507420000
H   	    3.1854450000 	    0.4270700000 	   -0.7277170000
H   	    1.6182840000 	    2.6809880000 	    0.6535470000
H   	    3.3759500000 	    2.6617900000 	    0.3892110000
H   	    2.6231670000 	    1.4869240000 	    1.4880770000
