36
tauto -875.229127581
C   	   -4.4579410000 	   -2.5349720000 	    0.3207990000
C   	   -3.3469590000 	   -1.6028610000 	   -0.0518100000
C   	   -2.3233540000 	   -1.9186760000 	   -0.8822310000
N   	   -1.3127190000 	   -1.0645310000 	   -1.2339550000
C   	   -1.3363550000 	    0.1263180000 	   -0.7210710000
C   	   -0.1840560000 	    1.0428570000 	   -1.0994570000
C   	   -0.4664770000 	    2.5159940000 	   -0.8180120000
C   	   -1.0374370000 	    2.6608990000 	    0.5866460000
C   	   -2.3640340000 	    1.9297350000 	    0.6891860000
N   	    0.9712970000 	    0.6300410000 	   -0.2830200000
N   	    1.9327190000 	    0.2863960000 	   -0.9842680000
C   	    3.0948910000 	   -0.1141780000 	   -0.2470720000
C   	    4.2195770000 	   -0.3917980000 	   -1.0183260000
C   	    5.4026390000 	   -0.7894820000 	   -0.4037770000
C   	    5.4529820000 	   -0.9152190000 	    0.9806590000
C   	    4.3211220000 	   -0.6431380000 	    1.7506630000
C   	    3.1401510000 	   -0.2422680000 	    1.1426700000
N   	   -2.3058520000 	    0.5635860000 	    0.1388620000
C   	   -3.3911460000 	   -0.2637180000 	    0.5058530000
O   	   -4.2713080000 	    0.1675230000 	    1.2374790000
H   	   -4.3257310000 	   -3.5123090000 	   -0.1526900000
H   	   -5.4259790000 	   -2.1222140000 	    0.0176830000
H   	   -4.5017690000 	   -2.6703360000 	    1.4066710000
H   	   -2.2630000000 	   -2.9101070000 	   -1.3293320000
H   	    0.0398280000 	    0.8601450000 	   -2.1551420000
H   	   -1.1816630000 	    2.8933610000 	   -1.5606320000
H   	    0.4613310000 	    3.0847600000 	   -0.9386790000
H   	   -1.2036670000 	    3.7128760000 	    0.8408030000
H   	   -0.3243570000 	    2.2538670000 	    1.3120700000
H   	   -3.1518550000 	    2.4691080000 	    0.1491960000
H   	   -2.7039450000 	    1.8357050000 	    1.7220080000
H   	    4.1444590000 	   -0.2891220000 	   -2.0972630000
H   	    6.2820550000 	   -1.0043760000 	   -1.0048140000
H   	    6.3741000000 	   -1.2296340000 	    1.4646850000
H   	    4.3631500000 	   -0.7486110000 	    2.8316690000
H   	    2.2477760000 	   -0.0287020000 	    1.7222890000
