46
tauto -885.834160867
C   	   -1.1961120000 	    3.4788520000 	   -1.2267410000
C   	   -0.4064370000 	    3.0844770000 	    0.0292110000
C   	   -1.2512550000 	    3.2955380000 	    1.2903300000
C   	    0.1170280000 	    1.6624590000 	   -0.0760660000
C   	   -0.8335210000 	    0.5428150000 	    0.2288250000
C   	   -0.5300590000 	   -0.2618920000 	    1.4744140000
N   	   -1.8352510000 	    0.3679920000 	   -0.5447040000
C   	   -2.7995280000 	   -0.6263800000 	   -0.2696300000
C   	   -3.7505440000 	   -0.4559150000 	    0.7399450000
C   	   -4.7337600000 	   -1.4185830000 	    0.9442780000
C   	   -4.7790000000 	   -2.5609240000 	    0.1504460000
C   	   -3.8349450000 	   -2.7289720000 	   -0.8593900000
C   	   -2.8572140000 	   -1.7652710000 	   -1.0768570000
C   	    1.3591520000 	    1.3615630000 	   -0.4909780000
C   	    2.4290610000 	    2.3835690000 	   -0.8056320000
N   	    1.6815710000 	    0.0271420000 	   -0.8171990000
C   	    2.7781550000 	   -0.6800870000 	   -0.3197590000
C   	    3.1013170000 	   -1.9211430000 	   -0.8856550000
C   	    4.1780100000 	   -2.6530300000 	   -0.4076750000
C   	    4.9672040000 	   -2.1603420000 	    0.6304200000
C   	    4.6482930000 	   -0.9305400000 	    1.1943710000
C   	    3.5567660000 	   -0.1966610000 	    0.7382710000
H   	   -1.5605830000 	    4.5101490000 	   -1.1451030000
H   	   -2.0523000000 	    2.8115100000 	   -1.3643130000
H   	   -0.5687560000 	    3.4060780000 	   -2.1221830000
H   	    0.4616790000 	    3.7515420000 	    0.1019600000
H   	   -2.1686950000 	    2.6952180000 	    1.2555120000
H   	   -1.5497820000 	    4.3459440000 	    1.3790250000
H   	   -0.6962850000 	    3.0246880000 	    2.1962380000
H   	    0.5454910000 	   -0.4448240000 	    1.5552380000
H   	   -1.0683830000 	   -1.2125570000 	    1.4949880000
H   	   -0.8270020000 	    0.3185240000 	    2.3573040000
H   	   -3.7174760000 	    0.4408070000 	    1.3550640000
H   	   -5.4692710000 	   -1.2734200000 	    1.7319140000
H   	   -5.5473720000 	   -3.3118110000 	    0.3133080000
H   	   -3.8631020000 	   -3.6150600000 	   -1.4890110000
H   	   -2.1293510000 	   -1.8806040000 	   -1.8761460000
H   	    2.1757570000 	    2.9320130000 	   -1.7207180000
H   	    3.3918670000 	    1.8953010000 	   -0.9725500000
H   	    2.5513760000 	    3.1159660000 	   -0.0016310000
H   	    0.9262820000 	   -0.5329550000 	   -1.1845620000
H   	    2.5023940000 	   -2.3002530000 	   -1.7113830000
H   	    4.4091220000 	   -3.6150860000 	   -0.8585030000
H   	    5.8154770000 	   -2.7315290000 	    0.9966470000
H   	    5.2442550000 	   -0.5372970000 	    2.0145310000
H   	    3.2947370000 	    0.7445310000 	    1.2149400000
