40
tauto -1064.71266905
C   	    1.1301760000 	    4.4557660000 	    0.5781430000
C   	    1.4432000000 	    3.0044850000 	    0.2348950000
C   	    0.1882610000 	    2.2096230000 	   -0.0793580000
C   	    0.1963890000 	    0.7296770000 	   -0.0606720000
N   	    1.3693440000 	   -0.0337350000 	    0.1199440000
N   	    2.4074880000 	    0.4458710000 	   -0.3774440000
C   	    3.5571380000 	   -0.3769190000 	   -0.1672890000
C   	    4.7928490000 	    0.2265030000 	   -0.3865200000
C   	    5.9629320000 	   -0.5064100000 	   -0.2170910000
C   	    5.8925360000 	   -1.8468430000 	    0.1502560000
C   	    4.6512830000 	   -2.4528420000 	    0.3478720000
C   	    3.4794210000 	   -1.7249030000 	    0.1930850000
C   	   -0.9934400000 	    0.0162590000 	   -0.0888020000
N   	   -2.1911860000 	    0.6420960000 	   -0.2121930000
C   	   -3.4434500000 	    0.0478860000 	   -0.1109580000
C   	   -4.6157300000 	    0.7986990000 	   -0.1863620000
C   	   -5.8464040000 	    0.1690430000 	   -0.0629750000
C   	   -5.9122210000 	   -1.2097090000 	    0.1368540000
C   	   -4.7464830000 	   -1.9611770000 	    0.2110360000
C   	   -3.5116500000 	   -1.3310940000 	    0.0845820000
N   	   -2.3042150000 	   -2.0254680000 	    0.1290400000
C   	   -1.0420060000 	   -1.5014080000 	   -0.0395320000
O   	   -0.0866720000 	   -2.2411160000 	   -0.1454760000
O   	   -0.8599730000 	    2.8343350000 	   -0.2804030000
H   	    2.0571550000 	    4.9989840000 	    0.7871890000
H   	    0.4840820000 	    4.5269340000 	    1.4586530000
H   	    0.6139100000 	    4.9515730000 	   -0.2476080000
H   	    1.9896200000 	    2.5084280000 	    1.0453090000
H   	    2.1094210000 	    2.9384660000 	   -0.6313210000
H   	    4.8175260000 	    1.2715280000 	   -0.6847270000
H   	    6.9281420000 	   -0.0333440000 	   -0.3782210000
H   	    6.8052200000 	   -2.4242210000 	    0.2751980000
H   	    4.5990130000 	   -3.5040780000 	    0.6202180000
H   	    2.4998430000 	   -2.1744710000 	    0.3302250000
H   	   -2.1098800000 	    1.6600690000 	   -0.3070400000
H   	   -4.5503300000 	    1.8731070000 	   -0.3390650000
H   	   -6.7581870000 	    0.7559990000 	   -0.1209350000
H   	   -6.8750040000 	   -1.7022530000 	    0.2352460000
H   	   -4.7870950000 	   -3.0369560000 	    0.3655300000
H   	   -2.3170880000 	   -3.0366920000 	    0.1599770000
