43
tauto -991.951996374
O   	   -4.1098960000 	    1.4274620000 	    0.7216820000
C   	   -3.1236580000 	    0.8095730000 	    0.3421900000
N   	   -1.9081330000 	    1.4951230000 	    0.1171410000
C   	   -1.9529160000 	    2.9411640000 	    0.3882450000
C   	   -0.7914700000 	    3.6826940000 	   -0.2485480000
C   	    0.5190120000 	    2.9883100000 	    0.0931710000
C   	    0.5109580000 	    1.5873940000 	   -0.5103790000
N   	    1.6124910000 	    0.8193760000 	    0.0771980000
N   	    2.5174320000 	    0.6079770000 	   -0.7415250000
C   	    3.6359370000 	   -0.1134260000 	   -0.2101670000
C   	    4.7633850000 	   -0.1546540000 	   -1.0249150000
C   	    5.9028640000 	   -0.8299870000 	   -0.5995510000
C   	    5.9040000000 	   -1.4745930000 	    0.6332930000
C   	    4.7663000000 	   -1.4436870000 	    1.4408370000
C   	    3.6299630000 	   -0.7640400000 	    1.0248790000
C   	   -0.7802100000 	    0.8217750000 	   -0.2625130000
N   	   -0.7396630000 	   -0.4558270000 	   -0.4679600000
C   	   -1.8946090000 	   -1.1802380000 	   -0.2859340000
C   	   -3.0745480000 	   -0.6147830000 	    0.0877780000
C   	   -4.3513050000 	   -1.3924310000 	    0.2720100000
C   	   -4.2687890000 	   -2.7780340000 	   -0.3682840000
C   	   -2.9495990000 	   -3.4607670000 	   -0.0065930000
C   	   -1.7633770000 	   -2.6595680000 	   -0.5432320000
H   	   -1.9529330000 	    3.0807900000 	    1.4759990000
H   	   -2.9193440000 	    3.2971900000 	    0.0271170000
H   	   -0.7972070000 	    4.7154150000 	    0.1151390000
H   	   -0.9220990000 	    3.7238300000 	   -1.3378300000
H   	    0.6367720000 	    2.9117370000 	    1.1820040000
H   	    1.3850520000 	    3.5360860000 	   -0.2919600000
H   	    0.6527210000 	    1.6497790000 	   -1.5982320000
H   	    4.7271720000 	    0.3503950000 	   -1.9862160000
H   	    6.7860980000 	   -0.8575030000 	   -1.2321190000
H   	    6.7902990000 	   -2.0086350000 	    0.9663980000
H   	    4.7676640000 	   -1.9561390000 	    2.3994360000
H   	    2.7323400000 	   -0.7294070000 	    1.6339910000
H   	   -5.1826150000 	   -0.8101640000 	   -0.1408390000
H   	   -4.5629360000 	   -1.4836740000 	    1.3468410000
H   	   -4.3371280000 	   -2.6816300000 	   -1.4608080000
H   	   -5.1211960000 	   -3.3884960000 	   -0.0493640000
H   	   -2.9173420000 	   -4.4824290000 	   -0.4016350000
H   	   -2.8732620000 	   -3.5402610000 	    1.0865730000
H   	   -1.6627100000 	   -2.8038190000 	   -1.6282290000
H   	   -0.8166830000 	   -2.9975210000 	   -0.1074210000
