39
tauto -989.533548523
O   	   -3.6511790000 	    1.5677290000 	    1.3246880000
C   	   -2.9135730000 	    0.8705570000 	    0.6474590000
N   	   -1.7069000000 	    1.3864100000 	    0.1463640000
C   	   -1.4573930000 	    2.7999110000 	    0.4821040000
C   	   -0.0140530000 	    3.2120840000 	    0.2565640000
C   	    0.4467080000 	    2.7582460000 	   -1.1219590000
C   	    0.4104260000 	    1.2338290000 	   -1.1886690000
N   	    1.4880690000 	    0.7117040000 	   -0.3289650000
N   	    2.3801350000 	    0.1640780000 	   -0.9911120000
C   	    3.4668560000 	   -0.3506240000 	   -0.2114580000
C   	    3.4483030000 	   -0.4637090000 	    1.1799850000
C   	    4.5545870000 	   -0.9863410000 	    1.8347110000
C   	    5.6756950000 	   -1.3917710000 	    1.1093240000
C   	    5.6880430000 	   -1.2811810000 	   -0.2774450000
C   	    4.5780220000 	   -0.7661660000 	   -0.9391630000
C   	   -0.8875460000 	    0.6318600000 	   -0.6717590000
N   	   -1.1177500000 	   -0.5871980000 	   -1.0177340000
C   	   -2.2666280000 	   -1.1974810000 	   -0.5379160000
C   	   -3.1760220000 	   -0.5228380000 	    0.2848440000
C   	   -4.3327540000 	   -1.1626400000 	    0.7508910000
C   	   -4.5761020000 	   -2.4747580000 	    0.4001310000
C   	   -3.6660600000 	   -3.1581050000 	   -0.4243780000
C   	   -2.5272860000 	   -2.5328340000 	   -0.8908070000
H   	   -1.7626290000 	    2.9348790000 	    1.5211710000
H   	   -2.1345150000 	    3.4124540000 	   -0.1264000000
H   	    0.6310520000 	    2.7661810000 	    1.0215630000
H   	    0.0534970000 	    4.3000230000 	    0.3606580000
H   	    1.4639090000 	    3.0980720000 	   -1.3429470000
H   	   -0.2126560000 	    3.1687760000 	   -1.8979070000
H   	    0.5554410000 	    0.8645550000 	   -2.2084420000
H   	    2.5651510000 	   -0.1448930000 	    1.7243060000
H   	    4.5449680000 	   -1.0831990000 	    2.9172990000
H   	    6.5383750000 	   -1.8007470000 	    1.6290380000
H   	    6.5585970000 	   -1.6006420000 	   -0.8439320000
H   	    4.5519490000 	   -0.6747160000 	   -2.0214820000
H   	   -5.0128010000 	   -0.5999660000 	    1.3838510000
H   	   -5.4685540000 	   -2.9803550000 	    0.7582860000
H   	   -3.8618750000 	   -4.1920190000 	   -0.6977360000
H   	   -1.8126970000 	   -3.0434220000 	   -1.5294750000
