18
tauto -456.064220737
C   	    3.5208680000 	   -0.7823370000 	   -0.0000770000
N   	    2.6950570000 	    0.4122030000 	   -0.0000790000
C   	    1.4199330000 	    0.2925040000 	   -0.0000460000
C   	    0.6591710000 	   -0.9756120000 	    0.0000850000
C   	   -0.6806270000 	   -0.9981130000 	    0.0001280000
C   	    0.6209440000 	    1.5306490000 	    0.0000320000
C   	   -0.7165750000 	    1.5142500000 	    0.0000530000
C   	   -1.4529150000 	    0.2489710000 	    0.0000400000
N   	   -2.7384410000 	    0.3313250000 	   -0.0000900000
O   	   -3.3455870000 	   -0.9061960000 	   -0.0000820000
H   	    4.5722430000 	   -0.4843790000 	   -0.0020860000
H   	    3.3458780000 	   -1.4059390000 	   -0.8874400000
H   	    3.3485910000 	   -1.4035080000 	    0.8895090000
H   	    1.2118340000 	   -1.9106120000 	    0.0002190000
H   	   -1.2304180000 	   -1.9327950000 	    0.0002460000
H   	    1.1875370000 	    2.4570180000 	    0.0000920000
H   	   -1.3070800000 	    2.4258700000 	    0.0001280000
H   	   -4.2849810000 	   -0.6826670000 	   -0.0001190000
