32
tauto -781.544872792
N   	   -0.0869510000 	    2.8184130000 	   -0.0000920000
C   	   -1.0783270000 	    1.9845310000 	   -0.0000150000
C   	   -2.4793850000 	    2.4150350000 	    0.0001110000
C   	   -3.4938950000 	    1.5376630000 	    0.0001410000
C   	   -3.2818430000 	    0.0986180000 	    0.0000570000
C   	   -1.9682090000 	   -0.4046770000 	   -0.0000210000
C   	   -1.7833640000 	   -1.7941370000 	   -0.0001130000
C   	   -2.8689560000 	   -2.6537240000 	   -0.0001160000
C   	   -4.1735330000 	   -2.1515310000 	   -0.0000320000
C   	   -4.3716720000 	   -0.7827870000 	    0.0000510000
C   	   -0.8258300000 	    0.5308790000 	   -0.0000280000
N   	    0.3623980000 	   -0.0178250000 	   -0.0000380000
N   	    1.4482750000 	    0.7105760000 	   -0.0000680000
C   	    2.7140790000 	    0.1075960000 	   -0.0000240000
C   	    2.8759150000 	   -1.2787660000 	    0.0001120000
C   	    4.1566690000 	   -1.8163770000 	    0.0001600000
C   	    5.2787570000 	   -0.9909900000 	    0.0000800000
C   	    5.1084970000 	    0.3904280000 	   -0.0000560000
C   	    3.8337320000 	    0.9424140000 	   -0.0001050000
H   	   -0.4252610000 	    3.7811880000 	   -0.0000530000
H   	   -2.6659050000 	    3.4873130000 	    0.0001870000
H   	   -4.5220020000 	    1.8959550000 	    0.0002330000
H   	   -0.7715620000 	   -2.1861720000 	   -0.0001860000
H   	   -2.7017800000 	   -3.7279510000 	   -0.0001890000
H   	   -5.0226680000 	   -2.8295390000 	   -0.0000400000
H   	   -5.3799690000 	   -0.3729200000 	    0.0001120000
H   	    1.3407160000 	    1.7330650000 	   -0.0001120000
H   	    1.9984120000 	   -1.9160760000 	    0.0001820000
H   	    4.2782650000 	   -2.8967660000 	    0.0002760000
H   	    6.2762710000 	   -1.4213760000 	    0.0001160000
H   	    5.9741050000 	    1.0480010000 	   -0.0001170000
H   	    3.6995040000 	    2.0220700000 	   -0.0002120000
