47
tauto -1377.07299485
C   	    0.6348900000 	    4.6880700000 	    2.3022050000
C   	    1.1913580000 	    4.2781320000 	    0.9532090000
O   	    1.0740010000 	    2.8540980000 	    0.7552250000
C   	   -0.0703160000 	    2.4057450000 	    0.2634040000
C   	   -0.0341140000 	    0.9465000000 	   -0.0167120000
C   	    1.2377120000 	    0.1748090000 	   -0.0286270000
N   	    1.2587960000 	   -0.9665490000 	    0.5692250000
C   	    2.3989990000 	   -1.7586440000 	    0.4933830000
C   	    2.3706290000 	   -3.0151180000 	    1.1159870000
C   	    3.4821480000 	   -3.8354310000 	    1.0802380000
C   	    4.6456730000 	   -3.4172670000 	    0.4211130000
C   	    4.6958820000 	   -2.1873160000 	   -0.2126100000
C   	    3.5689480000 	   -1.3655650000 	   -0.1774580000
N   	    3.5110600000 	   -0.1191120000 	   -0.8121710000
C   	    2.3800750000 	    0.6579820000 	   -0.7809290000
N   	    2.5486390000 	    1.7438080000 	   -1.5019100000
N   	    3.8071000000 	    1.6904090000 	   -2.0143710000
C   	    4.3721280000 	    0.5822170000 	   -1.6022580000
N   	   -1.0925410000 	    0.2329260000 	   -0.2012480000
N   	   -2.3013310000 	    0.7693730000 	   -0.2126120000
C   	   -3.3738890000 	   -0.1002480000 	   -0.2383750000
N   	   -4.6153370000 	    0.3275500000 	   -0.5291760000
C   	   -5.0313020000 	    1.6774670000 	   -0.8397760000
N   	   -5.5263100000 	   -0.6786520000 	   -0.4820710000
C   	   -4.8412580000 	   -1.7612950000 	   -0.1729450000
C   	   -5.5004920000 	   -3.0943150000 	   -0.0372170000
C   	   -3.4592470000 	   -1.4651890000 	    0.0030840000
C   	   -2.4354320000 	   -2.3769950000 	    0.3828020000
N   	   -1.6466760000 	   -3.1619690000 	    0.7088420000
O   	   -1.0687010000 	    3.0932850000 	    0.1017510000
H   	    0.8047390000 	    5.7578630000 	    2.4619360000
H   	    1.1281500000 	    4.1370160000 	    3.1085790000
H   	   -0.4410280000 	    4.4991690000 	    2.3481650000
H   	    2.2636920000 	    4.4663940000 	    0.8767700000
H   	    0.6775000000 	    4.7853650000 	    0.1332440000
H   	    1.4430840000 	   -3.3104730000 	    1.5985020000
H   	    3.4536670000 	   -4.8090320000 	    1.5605480000
H   	    5.5178410000 	   -4.0646680000 	    0.3977710000
H   	    5.5949640000 	   -1.8681680000 	   -0.7322260000
H   	    5.3729360000 	    0.2579180000 	   -1.8477080000
H   	   -2.4032320000 	    1.7780120000 	   -0.0963730000
H   	   -4.3624290000 	    2.1163250000 	   -1.5864180000
H   	   -5.0454580000 	    2.3071030000 	    0.0565580000
H   	   -6.0390150000 	    1.6127870000 	   -1.2492840000
H   	   -6.5763030000 	   -2.9883510000 	   -0.1931990000
H   	   -5.3251520000 	   -3.5189020000 	    0.9566210000
H   	   -5.1045200000 	   -3.8031310000 	   -0.7719590000
