38
tauto -935.143869459
N   	    3.9212250000 	    0.4459420000 	    1.6539000000
C   	    2.9954440000 	    0.2250880000 	    0.8030810000
C   	    2.6028370000 	   -1.1100370000 	    0.2674130000
C   	    1.3271020000 	   -1.2854630000 	   -0.2866010000
C   	    0.9498500000 	   -2.5457070000 	   -0.7591770000
C   	    1.8345260000 	   -3.6113770000 	   -0.7047220000
C   	    3.1122590000 	   -3.4346040000 	   -0.1733800000
C   	    3.4881260000 	   -2.1911130000 	    0.3099190000
C   	    2.2545970000 	    1.3913240000 	    0.2445550000
C   	    2.8430920000 	    2.6549100000 	    0.2767380000
C   	    2.2098750000 	    3.7425880000 	   -0.3082030000
C   	    0.9856970000 	    3.5658020000 	   -0.9476630000
C   	    0.3786240000 	    2.3160790000 	   -0.9621860000
C   	    0.9899270000 	    1.2167790000 	   -0.3424000000
C   	    0.3849190000 	   -0.1391970000 	   -0.3244620000
N   	   -0.8658190000 	   -0.4440890000 	   -0.2904970000
N   	   -1.8182950000 	    0.5028400000 	   -0.2310530000
C   	   -3.1411130000 	    0.1127230000 	    0.0370900000
C   	   -4.0637640000 	    1.0981160000 	    0.3968630000
C   	   -5.3900730000 	    0.7579940000 	    0.6306360000
C   	   -5.8121670000 	   -0.5627780000 	    0.5093660000
C   	   -4.8870080000 	   -1.5394030000 	    0.1510940000
C   	   -3.5569410000 	   -1.2139190000 	   -0.0870010000
H   	    4.3482880000 	   -0.4308840000 	    1.9586150000
H   	   -0.0453590000 	   -2.6696680000 	   -1.1751340000
H   	    1.5340860000 	   -4.5828630000 	   -1.0885640000
H   	    3.8144190000 	   -4.2633770000 	   -0.1454900000
H   	    4.4921760000 	   -2.0521130000 	    0.7048070000
H   	    3.8108090000 	    2.7553670000 	    0.7589670000
H   	    2.6792300000 	    4.7223760000 	   -0.2850620000
H   	    0.5016690000 	    4.4032210000 	   -1.4435100000
H   	   -0.5571990000 	    2.1854390000 	   -1.4978300000
H   	   -1.5510450000 	    1.4212080000 	    0.1093920000
H   	   -3.7395380000 	    2.1330280000 	    0.4939650000
H   	   -6.0972120000 	    1.5340340000 	    0.9125830000
H   	   -6.8497320000 	   -0.8270980000 	    0.6927680000
H   	   -5.2022120000 	   -2.5755140000 	    0.0539890000
H   	   -2.8330100000 	   -1.9728230000 	   -0.3617160000
