32
tauto -781.530707081
N   	   -4.6047470000 	   -1.7854170000 	    0.0308500000
C   	   -3.3803780000 	   -1.4119110000 	    0.0078960000
C   	   -2.2422450000 	   -2.3463560000 	   -0.0238070000
C   	   -0.9680990000 	   -1.9347050000 	   -0.0381550000
C   	   -3.0488950000 	    0.0365070000 	    0.0085240000
C   	   -4.0864370000 	    0.9749300000 	    0.0268650000
C   	   -3.8094390000 	    2.3305330000 	    0.0266770000
C   	   -2.4815760000 	    2.7645930000 	    0.0086300000
C   	   -1.4474220000 	    1.8449930000 	   -0.0084900000
C   	   -1.7145450000 	    0.4699090000 	   -0.0095750000
C   	   -0.6081100000 	   -0.5159940000 	   -0.0251520000
N   	    0.5986830000 	   -0.0505570000 	   -0.0281600000
N   	    1.6580810000 	   -0.8520090000 	   -0.0331230000
C   	    2.9570880000 	   -0.3337330000 	   -0.0101190000
C   	    4.0290000000 	   -1.2284410000 	    0.0414120000
C   	    5.3329290000 	   -0.7498360000 	    0.0593420000
C   	    5.5836460000 	    0.6185230000 	    0.0264260000
C   	    4.5096170000 	    1.5034970000 	   -0.0251030000
C   	    3.1998040000 	    1.0410120000 	   -0.0442720000
H   	   -4.6625370000 	   -2.8061660000 	    0.0256080000
H   	   -2.4759140000 	   -3.4096710000 	   -0.0388730000
H   	   -0.1872710000 	   -2.6904990000 	   -0.0705660000
H   	   -5.1070240000 	    0.6043950000 	    0.0411290000
H   	   -4.6210280000 	    3.0531880000 	    0.0406220000
H   	   -2.2563190000 	    3.8282020000 	    0.0084580000
H   	   -0.4137330000 	    2.1753360000 	   -0.0209580000
H   	    1.5559290000 	   -1.8569560000 	    0.0292890000
H   	    3.8405170000 	   -2.3005790000 	    0.0677570000
H   	    6.1578630000 	   -1.4566000000 	    0.0996250000
H   	    6.6037280000 	    0.9915720000 	    0.0407700000
H   	    4.6906930000 	    2.5751890000 	   -0.0518480000
H   	    2.3613490000 	    1.7273360000 	   -0.0845730000
