39
tauto -935.33394782
C   	   -0.5970760000 	    4.1415510000 	    1.4660870000
O   	   -1.2958000000 	    4.0358960000 	    0.2447120000
C   	   -0.5417240000 	    3.4178980000 	   -0.7678390000
N   	   -0.1804390000 	    2.0351880000 	   -0.5125380000
C   	   -1.1174010000 	    1.1439210000 	   -0.3675170000
C   	   -2.5532720000 	    1.4374480000 	   -0.4141340000
C   	   -3.4739540000 	    0.4656090000 	   -0.2961030000
C   	   -3.1329490000 	   -0.9311530000 	   -0.0971040000
C   	   -1.7784980000 	   -1.2988770000 	   -0.0180170000
C   	   -1.4622810000 	   -2.6504020000 	    0.1832230000
C   	   -2.4608460000 	   -3.6015370000 	    0.3003420000
C   	   -3.8079150000 	   -3.2335540000 	    0.2200740000
C   	   -4.1349460000 	   -1.9049800000 	    0.0231820000
C   	   -0.7331040000 	   -0.2657960000 	   -0.1524700000
N   	    0.4998460000 	   -0.7051700000 	   -0.0696350000
N   	    1.5199080000 	    0.1022310000 	   -0.1808470000
C   	    2.8324500000 	   -0.3804710000 	   -0.0832790000
C   	    3.8744130000 	    0.5401000000 	   -0.2147340000
C   	    5.1927170000 	    0.1114360000 	   -0.1259550000
C   	    5.4830910000 	   -1.2319980000 	    0.0933340000
C   	    4.4381320000 	   -2.1439090000 	    0.2228930000
C   	    3.1150190000 	   -1.7295850000 	    0.1368040000
H   	   -1.2290740000 	    4.7187120000 	    2.1445110000
H   	    0.3599300000 	    4.6682930000 	    1.3297910000
H   	   -0.3957770000 	    3.1569470000 	    1.9072430000
H   	    0.3969020000 	    3.9716470000 	   -0.9179260000
H   	   -1.1444930000 	    3.5025430000 	   -1.6812090000
H   	   -2.8593450000 	    2.4714730000 	   -0.5172880000
H   	   -4.5315400000 	    0.7216060000 	   -0.3405660000
H   	   -0.4184020000 	   -2.9393380000 	    0.2451220000
H   	   -2.1930570000 	   -4.6436490000 	    0.4559250000
H   	   -4.5883860000 	   -3.9839850000 	    0.3115270000
H   	   -5.1772660000 	   -1.5983490000 	   -0.0414620000
H   	    1.3115280000 	    1.0984280000 	   -0.3431370000
H   	    3.6465910000 	    1.5899380000 	   -0.3868140000
H   	    5.9971310000 	    0.8351790000 	   -0.2291640000
H   	    6.5144990000 	   -1.5661390000 	    0.1630870000
H   	    4.6536690000 	   -3.1956280000 	    0.3941430000
H   	    2.2971520000 	   -2.4348020000 	    0.2369380000
