39
tauto -1226.13200983
C   	   -6.2341720000 	   -2.4149340000 	    0.2455220000
C   	   -4.8291510000 	   -1.9127750000 	    0.1898100000
N   	   -3.7975280000 	   -2.7241790000 	    0.2880840000
N   	   -2.7058680000 	   -1.9222900000 	    0.1970730000
H   	   -1.7732690000 	   -2.3031840000 	    0.2419650000
C   	   -3.0194680000 	   -0.6284120000 	    0.0453640000
N   	   -2.0705680000 	    0.3613290000 	   -0.0758700000
N   	   -0.7971460000 	   -0.0009750000 	    0.0226470000
C   	    0.1551300000 	    0.8613870000 	   -0.0765670000
C   	   -0.0724720000 	    2.3085910000 	   -0.3381350000
O   	    1.0349110000 	    2.9265300000 	   -0.7366480000
C   	    0.9043170000 	    4.3360890000 	   -0.9536630000
O   	   -1.1590840000 	    2.8516320000 	   -0.2523680000
C   	    1.5402350000 	    0.3390250000 	    0.0611870000
N   	    1.9100270000 	   -0.6779560000 	   -0.6302330000
C   	    3.1935900000 	   -1.1843560000 	   -0.4481080000
C   	    3.6017210000 	   -2.2901820000 	   -1.2052510000
C   	    4.8710190000 	   -2.8143680000 	   -1.0508460000
C   	    5.7552310000 	   -2.2338340000 	   -0.1320460000
C   	    5.3752230000 	   -1.1391260000 	    0.6246110000
C   	    4.0900850000 	   -0.6109990000 	    0.4662710000
N   	    3.6468800000 	    0.4798320000 	    1.1962250000
C   	    2.3861140000 	    1.0141930000 	    1.0918200000
O   	    1.9977340000 	    1.9324690000 	    1.7922240000
C   	   -4.4046520000 	   -0.5579390000 	    0.0320290000
C   	   -5.1981000000 	    0.6097190000 	   -0.1099050000
N   	   -5.8404130000 	    1.5686250000 	   -0.2280530000
H   	   -6.2292850000 	   -3.4982200000 	    0.3844600000
H   	   -6.7715690000 	   -2.1786740000 	   -0.6787650000
H   	   -6.7818540000 	   -1.9537380000 	    1.0738640000
H   	   -2.3246860000 	    1.3466460000 	   -0.1457240000
H   	    1.8847530000 	    4.6711300000 	   -1.2896920000
H   	    0.6254240000 	    4.8313860000 	   -0.0210180000
H   	    0.1443010000 	    4.5336550000 	   -1.7128250000
H   	    2.8881860000 	   -2.7107820000 	   -1.9077380000
H   	    5.1838130000 	   -3.6723750000 	   -1.6381560000
H   	    6.7531210000 	   -2.6455300000 	   -0.0080290000
H   	    6.0617990000 	   -0.6888310000 	    1.3378100000
H   	    4.2452020000 	    0.9002790000 	    1.8965050000
