29
tauto -667.211352749
C   	    5.7711870000 	   -0.9936610000 	   -0.0101580000
N   	    5.0382440000 	    0.2590090000 	   -0.0143680000
C   	    3.7562740000 	    0.2346440000 	   -0.0038350000
C   	    2.9068970000 	   -0.9743770000 	    0.0157250000
C   	    1.5663500000 	   -0.9013940000 	    0.0207530000
C   	    3.0407100000 	    1.5185730000 	   -0.0083770000
C   	    1.7027650000 	    1.5867320000 	   -0.0027270000
C   	    0.8704530000 	    0.3864950000 	    0.0076330000
N   	   -0.4133030000 	    0.5761240000 	    0.0050420000
N   	   -1.2563430000 	   -0.4486700000 	    0.0088740000
C   	   -2.6410060000 	   -0.2500350000 	    0.0022820000
C   	   -3.4732390000 	   -1.3719980000 	   -0.0101070000
C   	   -4.8530530000 	   -1.2121070000 	   -0.0152960000
C   	   -5.4161930000 	    0.0603790000 	   -0.0083060000
C   	   -4.5787760000 	    1.1734070000 	    0.0039680000
C   	   -3.1969940000 	    1.0309180000 	    0.0095290000
H   	    6.8405210000 	   -0.7774610000 	   -0.0764170000
H   	    5.5068110000 	   -1.6404990000 	   -0.8587270000
H   	    5.6024990000 	   -1.5642180000 	    0.9140700000
H   	    3.3889690000 	   -1.9473080000 	    0.0306250000
H   	    0.9997540000 	   -1.8300120000 	    0.0398390000
H   	    3.6636290000 	    2.4079360000 	   -0.0177510000
H   	    1.1762630000 	    2.5370850000 	   -0.0076810000
H   	   -0.9205190000 	   -1.4036980000 	   -0.0027100000
H   	   -3.0383450000 	   -2.3702360000 	   -0.0159040000
H   	   -5.4907910000 	   -2.0924120000 	   -0.0250050000
H   	   -6.4953630000 	    0.1840950000 	   -0.0124520000
H   	   -5.0063180000 	    2.1729610000 	    0.0096890000
H   	   -2.5395480000 	    1.8930810000 	    0.0190900000
