20
tauto -424.068124787
C   	   -3.5487450000 	   -0.6164010000 	   -0.0001380000
C   	   -2.1681600000 	   -0.0278100000 	   -0.0000220000
O   	   -2.1241770000 	    1.3395460000 	    0.0002190000
C   	   -1.0496060000 	   -0.7654100000 	   -0.0000170000
C   	    0.3575080000 	   -0.3372180000 	    0.0001060000
C   	    1.3438890000 	   -1.3345680000 	    0.0001090000
C   	    2.6959170000 	   -1.0175000000 	    0.0000500000
C   	    3.0987220000 	    0.3147920000 	   -0.0000930000
C   	    2.1331100000 	    1.3167380000 	   -0.0001100000
C   	    0.7785830000 	    1.0012940000 	   -0.0000040000
H   	   -4.1092810000 	   -0.2944800000 	    0.8874690000
H   	   -3.5137500000 	   -1.7075260000 	   -0.0017980000
H   	   -4.1100870000 	   -0.2919140000 	   -0.8863120000
H   	   -3.0250700000 	    1.6842410000 	   -0.0000260000
H   	   -1.2028870000 	   -1.8419410000 	   -0.0002260000
H   	    1.0381590000 	   -2.3795740000 	    0.0002030000
H   	    3.4370740000 	   -1.8131920000 	    0.0000940000
H   	    4.1557270000 	    0.5689720000 	   -0.0002370000
H   	    2.4359370000 	    2.3613970000 	   -0.0002230000
H   	    0.0402840000 	    1.7941510000 	    0.0000040000
