34
tauto -931.927093054
N   	    6.2596160000 	   -0.7384490000 	   -0.0478370000
C   	    5.0371730000 	   -0.3523100000 	    0.0141140000
C   	    4.5849350000 	    1.0178660000 	    0.3078130000
C   	    3.2828470000 	    1.3312150000 	    0.3474570000
C   	    2.2283130000 	    0.3527320000 	    0.1030160000
N   	    1.0090960000 	    0.8070560000 	    0.1622350000
N   	   -0.0567280000 	    0.0556380000 	   -0.0406880000
C   	   -1.3606280000 	    0.5899760000 	   -0.0222910000
C   	   -2.4476840000 	   -0.3406690000 	    0.0536450000
C   	   -2.2547580000 	   -1.7413720000 	    0.2144820000
C   	   -3.3216410000 	   -2.6019170000 	    0.2541270000
C   	   -4.6436740000 	   -2.1172850000 	    0.1403040000
C   	   -4.8594500000 	   -0.7714010000 	    0.0096440000
C   	   -3.7787430000 	    0.1459190000 	   -0.0296240000
C   	   -3.9999750000 	    1.5458460000 	   -0.1365500000
C   	   -2.9504390000 	    2.4147360000 	   -0.1532760000
C   	   -1.6119910000 	    1.9498400000 	   -0.1009160000
O   	   -0.6530430000 	    2.9011090000 	   -0.1521330000
C   	    3.9784940000 	   -1.3376050000 	   -0.2207650000
C   	    2.6737110000 	   -1.0192020000 	   -0.1798060000
O   	    1.6784210000 	   -1.9326400000 	   -0.3972700000
H   	    6.8829980000 	    0.0511110000 	    0.1375990000
H   	    5.3446300000 	    1.7737650000 	    0.4937560000
H   	    2.9512100000 	    2.3428980000 	    0.5659940000
H   	    0.0755950000 	   -0.9053270000 	   -0.3290700000
H   	   -1.2554320000 	   -2.1490260000 	    0.3452520000
H   	   -3.1482490000 	   -3.6668230000 	    0.3861640000
H   	   -5.4799710000 	   -2.8103120000 	    0.1694740000
H   	   -5.8715170000 	   -0.3781640000 	   -0.0633120000
H   	   -5.0210790000 	    1.9152720000 	   -0.1943730000
H   	   -3.0947130000 	    3.4886310000 	   -0.2248660000
H   	    0.2070630000 	    2.4673140000 	    0.0091500000
H   	    4.3063070000 	   -2.3533870000 	   -0.4313810000
H   	    2.0773090000 	   -2.7916420000 	   -0.5933730000
