23
tauto -571.641824104
C   	   -3.7150590000 	   -1.4926730000 	    0.2252400000
C   	   -2.5545030000 	   -0.5583590000 	    0.0929820000
C   	   -2.5841720000 	    0.8416790000 	   -0.1262810000
C   	   -1.2584090000 	    1.1987700000 	   -0.1606070000
O   	   -0.6492710000 	    2.3876570000 	   -0.3580860000
N   	   -1.3195940000 	   -1.0118770000 	    0.1864070000
N   	   -0.5158870000 	    0.0789360000 	    0.0351130000
C   	    0.8957690000 	   -0.0832870000 	    0.0310320000
C   	    1.7431640000 	    0.9524220000 	    0.4212580000
C   	    3.1196680000 	    0.7503730000 	    0.4031820000
C   	    3.6522430000 	   -0.4749640000 	    0.0178930000
C   	    2.7952140000 	   -1.5075150000 	   -0.3540170000
C   	    1.4196870000 	   -1.3170450000 	   -0.3541500000
H   	   -4.3313790000 	   -1.4891840000 	   -0.6804580000
H   	   -4.3580830000 	   -1.2094150000 	    1.0655560000
H   	   -3.3492500000 	   -2.5083540000 	    0.3940850000
H   	   -3.4448340000 	    1.4872200000 	   -0.2389870000
H   	   -1.3317840000 	    3.0367550000 	   -0.5692800000
H   	    1.3327050000 	    1.9043710000 	    0.7367090000
H   	    3.7784070000 	    1.5604370000 	    0.7054900000
H   	    4.7282880000 	   -0.6267650000 	    0.0110780000
H   	    3.1996340000 	   -2.4711040000 	   -0.6530390000
H   	    0.7372270000 	   -2.1110420000 	   -0.6362960000
