34
tauto -931.964789617
N   	   -6.0497990000 	   -1.4617590000 	   -0.0541290000
C   	   -4.7512520000 	   -0.9542050000 	   -0.0022410000
C   	   -3.6452410000 	   -1.8112950000 	    0.0000710000
C   	   -2.3565240000 	   -1.2969740000 	   -0.0019200000
C   	   -4.5323350000 	    0.4280100000 	   -0.0075690000
C   	   -3.2408260000 	    0.9365120000 	   -0.0099410000
O   	   -2.9665880000 	    2.2704560000 	   -0.0133140000
C   	   -2.1368860000 	    0.0753120000 	   -0.0058010000
N   	   -0.8562210000 	    0.6561760000 	   -0.0049420000
N   	    0.2037680000 	   -0.0891280000 	   -0.0042420000
C   	    1.4080930000 	    0.4487810000 	   -0.0011470000
C   	    2.5465740000 	   -0.4797220000 	   -0.0016430000
C   	    2.3762910000 	   -1.8725140000 	   -0.0097860000
C   	    3.4711120000 	   -2.7183780000 	   -0.0098160000
C   	    4.7713400000 	   -2.2008160000 	   -0.0017250000
C   	    4.9547680000 	   -0.8311690000 	    0.0059320000
C   	    3.8552210000 	    0.0406260000 	    0.0058910000
C   	    4.0508430000 	    1.4801750000 	    0.0129940000
C   	    3.0278940000 	    2.3533200000 	    0.0121350000
C   	    1.6364430000 	    1.8994670000 	    0.0044680000
O   	    0.7015850000 	    2.7176160000 	    0.0038670000
H   	   -6.1433110000 	   -2.4052360000 	    0.2952190000
H   	   -6.7582920000 	   -0.8549900000 	    0.3341550000
H   	   -3.7979220000 	   -2.8877340000 	   -0.0026490000
H   	   -1.4975260000 	   -1.9599680000 	    0.0013950000
H   	   -5.3790990000 	    1.1133760000 	   -0.0193500000
H   	   -3.7909750000 	    2.7713330000 	   -0.0374390000
H   	   -0.7390110000 	    1.6764950000 	   -0.0047720000
H   	    1.3689790000 	   -2.2766680000 	   -0.0167010000
H   	    3.3170960000 	   -3.7946670000 	   -0.0166310000
H   	    5.6275680000 	   -2.8699010000 	   -0.0018420000
H   	    5.9586580000 	   -0.4106160000 	    0.0119790000
H   	    5.0769300000 	    1.8456330000 	    0.0188780000
H   	    3.1796000000 	    3.4285770000 	    0.0171120000
