23
tauto -571.643911
C   	   -3.7796960000 	   -1.3816390000 	    0.0841580000
C   	   -2.6244150000 	   -0.4401690000 	    0.0107050000
N   	   -1.3361520000 	   -0.9468990000 	    0.1722440000
N   	   -0.4793560000 	    0.1585620000 	    0.2081610000
C   	    0.9118520000 	   -0.0533360000 	    0.0887250000
C   	    1.7969120000 	    1.0049710000 	    0.3180460000
C   	    3.1644720000 	    0.7787320000 	    0.2271270000
C   	    3.6652380000 	   -0.4855310000 	   -0.0722850000
C   	    2.7775050000 	   -1.5319070000 	   -0.2949150000
C   	    1.4044920000 	   -1.3230010000 	   -0.2210220000
C   	   -2.5817410000 	    0.8854330000 	   -0.2184080000
C   	   -1.1910210000 	    1.3270880000 	   -0.1164760000
O   	   -0.6948350000 	    2.4284810000 	   -0.2724520000
H   	   -3.8323790000 	   -1.8698850000 	    1.0644410000
H   	   -3.6890540000 	   -2.1642850000 	   -0.6758410000
H   	   -4.7157400000 	   -0.8430900000 	   -0.0767290000
H   	   -1.2059560000 	   -1.5437860000 	    0.9859960000
H   	    1.4032400000 	    1.9884410000 	    0.5418320000
H   	    3.8475030000 	    1.6065320000 	    0.4001090000
H   	    4.7371300000 	   -0.6518110000 	   -0.1350400000
H   	    3.1510350000 	   -2.5234020000 	   -0.5385050000
H   	    0.7151240000 	   -2.1356190000 	   -0.4274890000
H   	   -3.4052480000 	    1.5435710000 	   -0.4559190000
