27
tauto -615.756309037
O   	   -0.2170940000 	    1.7825340000 	   -0.3376460000
C   	   -0.4897570000 	    0.4621200000 	   -0.0982600000
C   	   -1.9310810000 	    0.1105990000 	   -0.0384430000
C   	   -2.8499460000 	    1.0282350000 	    0.4834750000
C   	   -4.2045450000 	    0.7186440000 	    0.5426670000
C   	   -4.6606920000 	   -0.5109850000 	    0.0785610000
C   	   -3.7541000000 	   -1.4289290000 	   -0.4465660000
C   	   -2.4012350000 	   -1.1190110000 	   -0.5108600000
C   	    0.4908540000 	   -0.4276240000 	    0.1237920000
C   	    1.9488520000 	   -0.2470260000 	    0.0803830000
C   	    2.7514870000 	   -1.3720120000 	    0.3224580000
C   	    4.1375640000 	   -1.2924240000 	    0.2936230000
C   	    4.7594950000 	   -0.0774660000 	    0.0214550000
C   	    3.9779890000 	    1.0488510000 	   -0.2187760000
C   	    2.5899620000 	    0.9718670000 	   -0.1891970000
H   	   -0.9874500000 	    2.1789090000 	   -0.7657090000
H   	   -2.4956180000 	    1.9781600000 	    0.8785800000
H   	   -4.9041780000 	    1.4379610000 	    0.9605730000
H   	   -5.7193180000 	   -0.7527880000 	    0.1233290000
H   	   -4.1053600000 	   -2.3867090000 	   -0.8218550000
H   	   -1.6993120000 	   -1.8237120000 	   -0.9491880000
H   	    0.1587150000 	   -1.4276100000 	    0.3921960000
H   	    2.2730270000 	   -2.3262730000 	    0.5361020000
H   	    4.7330120000 	   -2.1818300000 	    0.4852690000
H   	    5.8441730000 	   -0.0083310000 	   -0.0014530000
H   	    4.4537310000 	    2.0038920000 	   -0.4291880000
H   	    1.9962470000 	    1.8590160000 	   -0.3733630000
