17
tauto -363.939865048
N   	    2.4379830000 	   -0.8701540000 	   -0.0614820000
C   	    1.1716360000 	   -0.3511380000 	    0.0163170000
C   	    1.1022880000 	    1.1480080000 	    0.1749770000
C   	   -0.2159020000 	    1.7086180000 	   -0.3546220000
C   	   -1.3999510000 	    0.9485720000 	    0.2367150000
C   	    0.0559090000 	   -1.1150170000 	   -0.0696020000
C   	   -1.2905570000 	   -0.5562610000 	    0.0191990000
O   	   -2.2914380000 	   -1.2527990000 	   -0.0401250000
H   	    3.2058820000 	   -0.3079320000 	    0.2709120000
H   	    2.5502590000 	   -1.8641830000 	    0.0711980000
H   	    1.9536720000 	    1.6047240000 	   -0.3448780000
H   	    1.2145840000 	    1.3908690000 	    1.2420490000
H   	   -0.2293730000 	    1.6115330000 	   -1.4473450000
H   	   -0.2876050000 	    2.7776640000 	   -0.1259850000
H   	   -2.3541970000 	    1.2783420000 	   -0.1837900000
H   	   -1.4519230000 	    1.1196550000 	    1.3219980000
H   	    0.1237840000 	   -2.1938940000 	   -0.1906920000
