34
tauto -711.649463795
C   	   -4.3006180000 	   -1.5557800000 	    0.0006200000
C   	   -3.6598070000 	   -0.1668160000 	    0.0001930000
C   	   -4.1000750000 	    0.5996950000 	   -1.2572410000
C   	   -4.0994480000 	    0.6001620000 	    1.2575570000
C   	   -2.1259270000 	   -0.3088650000 	   -0.0002510000
C   	   -1.3291130000 	    0.8890100000 	   -0.0003460000
C   	    0.0511300000 	    0.8699970000 	   -0.0003740000
N   	    0.7463210000 	   -0.3044710000 	   -0.0005390000
C   	    2.1204040000 	   -0.4070200000 	   -0.0002100000
C   	    2.7417080000 	   -1.6648640000 	   -0.0001870000
C   	    4.1209510000 	   -1.7440280000 	    0.0001240000
C   	    4.9080660000 	   -0.5831440000 	    0.0004010000
C   	    4.2964540000 	    0.6552060000 	    0.0003660000
C   	    2.8972670000 	    0.7647290000 	    0.0000580000
C   	    2.1975210000 	    2.0287890000 	    0.0000170000
C   	    0.8509490000 	    2.0814950000 	   -0.0002010000
O   	   -1.6222950000 	   -1.4464050000 	   -0.0003430000
H   	   -5.3931490000 	   -1.4614120000 	    0.0009940000
H   	   -3.9990780000 	   -2.1291490000 	    0.8820990000
H   	   -3.9997100000 	   -2.1294060000 	   -0.8809080000
H   	   -5.1933700000 	    0.6838170000 	   -1.2803830000
H   	   -3.7822720000 	    0.0773720000 	   -2.1669200000
H   	   -3.6853630000 	    1.6128420000 	   -1.2882590000
H   	   -5.1927350000 	    0.6842290000 	    1.2812620000
H   	   -3.6847870000 	    1.6133470000 	    1.2879680000
H   	   -3.7811290000 	    0.0782230000 	    2.1672770000
H   	   -1.8123670000 	    1.8595560000 	   -0.0002790000
H   	    0.1425370000 	   -1.1343870000 	   -0.0004520000
H   	    2.1301120000 	   -2.5637670000 	   -0.0004030000
H   	    4.5990820000 	   -2.7199660000 	    0.0001530000
H   	    5.9914070000 	   -0.6600340000 	    0.0006480000
H   	    4.8926960000 	    1.5655130000 	    0.0005740000
H   	    2.7840890000 	    2.9451940000 	    0.0001870000
H   	    0.3213710000 	    3.0291700000 	   -0.0001980000
