16
tauto -325.826326814
C   	   -1.7238440000 	    1.1885070000 	    0.0459730000
C   	   -1.3861340000 	   -0.2940090000 	   -0.0038500000
C   	    0.0093180000 	   -0.7505630000 	   -0.0094750000
C   	    1.1669160000 	   -0.0451520000 	   -0.0043140000
C   	    2.4908790000 	   -0.7637490000 	    0.0249030000
N   	    1.3039320000 	    1.3249530000 	    0.0245280000
O   	   -2.2932340000 	   -1.1114010000 	   -0.0304780000
H   	   -1.2336690000 	    1.6845120000 	    0.8917950000
H   	   -2.8058840000 	    1.2898000000 	    0.1460550000
H   	   -1.4166370000 	    1.6898470000 	   -0.8818280000
H   	    0.0929780000 	   -1.8328160000 	   -0.0029040000
H   	    2.3536270000 	   -1.8441790000 	    0.0868570000
H   	    3.0807800000 	   -0.4363250000 	    0.8888030000
H   	    3.0704860000 	   -0.5395270000 	   -0.8792670000
H   	    0.5286950000 	    1.9015110000 	   -0.2581030000
H   	    2.2051650000 	    1.6935050000 	   -0.2386980000
