23
tauto -571.643911005
C   	   -3.7796970000 	   -1.3816380000 	    0.0841740000
C   	   -2.6244150000 	   -0.4401700000 	    0.0107000000
N   	   -1.3361520000 	   -0.9469020000 	    0.1722260000
N   	   -0.4793560000 	    0.1585580000 	    0.2081460000
C   	    0.9118520000 	   -0.0533370000 	    0.0887180000
C   	    1.7969090000 	    1.0049710000 	    0.3180440000
C   	    3.1644700000 	    0.7787350000 	    0.2271330000
C   	    3.6652390000 	   -0.4855280000 	   -0.0722750000
C   	    2.7775100000 	   -1.5319060000 	   -0.2949110000
C   	    1.4044960000 	   -1.3230010000 	   -0.2210270000
C   	   -2.5817430000 	    0.8854330000 	   -0.2184040000
C   	   -1.1910220000 	    1.3270870000 	   -0.1164780000
O   	   -0.6948370000 	    2.4284810000 	   -0.2724480000
H   	   -3.8324860000 	   -1.8697260000 	    1.0645310000
H   	   -3.6889680000 	   -2.1644020000 	   -0.6756920000
H   	   -4.7157270000 	   -0.8431200000 	   -0.0768990000
H   	   -1.2059480000 	   -1.5437990000 	    0.9859700000
H   	    1.4032340000 	    1.9884410000 	    0.5418270000
H   	    3.8474990000 	    1.6065350000 	    0.4001190000
H   	    4.7371320000 	   -0.6518060000 	   -0.1350230000
H   	    3.1510430000 	   -2.5233990000 	   -0.5384990000
H   	    0.7151310000 	   -2.1356210000 	   -0.4274990000
H   	   -3.4052510000 	    1.5435710000 	   -0.4559080000
