17
tauto -363.939865048
N   	    2.4379830000 	   -0.8701550000 	   -0.0614720000
C   	    1.1716360000 	   -0.3511370000 	    0.0163100000
C   	    1.1022880000 	    1.1480090000 	    0.1749730000
C   	   -0.2159030000 	    1.7086190000 	   -0.3546200000
C   	   -1.3999500000 	    0.9485720000 	    0.2367180000
C   	    0.0559090000 	   -1.1150160000 	   -0.0696160000
C   	   -1.2905570000 	   -0.5562610000 	    0.0191980000
O   	   -2.2914370000 	   -1.2528010000 	   -0.0401180000
H   	    3.2058820000 	   -0.3079360000 	    0.2709260000
H   	    2.5502560000 	   -1.8641860000 	    0.0712010000
H   	    1.9536690000 	    1.6047230000 	   -0.3448870000
H   	    1.2145900000 	    1.3908730000 	    1.2420440000
H   	   -0.2293760000 	    1.6115370000 	   -1.4473440000
H   	   -0.2876060000 	    2.7776640000 	   -0.1259810000
H   	   -2.3541970000 	    1.2783430000 	   -0.1837860000
H   	   -1.4519210000 	    1.1196530000 	    1.3220010000
H   	    0.1237820000 	   -2.1938930000 	   -0.1907030000
