10
tauto -305.187396953
O   	   -2.0372250000 	   -0.0353150000 	    0.0000270000
C   	   -0.8392720000 	    0.0198750000 	   -0.0000840000
O   	   -0.0470690000 	   -1.0951130000 	    0.0000030000
C   	    1.3232820000 	   -0.7195600000 	    0.0000200000
C   	    1.3171220000 	    0.7810350000 	   -0.0000450000
C   	    0.0585220000 	    1.2059670000 	    0.0000120000
H   	    1.8082190000 	   -1.1383400000 	   -0.8891840000
H   	    1.8081410000 	   -1.1380670000 	    0.8894140000
H   	    2.2229690000 	    1.3774280000 	   -0.0000370000
H   	   -0.3228950000 	    2.2185010000 	    0.0001440000
