23
tauto -442.536473455
C   	    3.0443950000 	    0.0739340000 	    1.1627480000
C   	    2.7537400000 	   -0.2894470000 	   -0.2912320000
N   	    1.4727150000 	   -0.9716340000 	   -0.3927140000
C   	    0.4033500000 	   -0.3239300000 	   -0.6132200000
C   	    0.2164940000 	    1.1724630000 	   -0.7825060000
C   	   -0.8031570000 	    1.6932400000 	    0.2416590000
C   	   -2.1518680000 	    0.9743680000 	    0.1226070000
C   	   -0.8905600000 	   -1.1131950000 	   -0.6889110000
C   	   -1.9943590000 	   -0.5347870000 	    0.1858480000
O   	   -2.7094920000 	   -1.2368110000 	    0.8643420000
H   	    4.0512720000 	    0.4907870000 	    1.2691010000
H   	    2.9650630000 	   -0.8140260000 	    1.7973650000
H   	    2.3249900000 	    0.8154370000 	    1.5306390000
H   	    3.5174850000 	   -0.9885810000 	   -0.6488840000
H   	    2.8227470000 	    0.6059330000 	   -0.9256060000
H   	   -0.1622090000 	    1.3670650000 	   -1.7967650000
H   	    1.1586610000 	    1.7157680000 	   -0.6793850000
H   	   -0.9460410000 	    2.7706390000 	    0.1063530000
H   	   -0.4010290000 	    1.5514740000 	    1.2535730000
H   	   -2.6063160000 	    1.2175930000 	   -0.8496040000
H   	   -2.8532450000 	    1.2806120000 	    0.9032670000
H   	   -0.7130100000 	   -2.1559520000 	   -0.4213550000
H   	   -1.2596470000 	   -1.0767080000 	   -1.7264070000
