32
tauto -785.380318479
O   	    0.7458190000 	   -1.2387350000 	   -0.9271960000
C   	    1.1928460000 	   -0.2270950000 	   -0.4144130000
C   	    0.3482870000 	    0.9490530000 	   -0.0704530000
C   	   -0.9809860000 	    1.0027060000 	    0.1292290000
C   	   -1.9575550000 	   -0.1084790000 	    0.2063070000
C   	   -1.6634070000 	   -1.3757280000 	    0.7131460000
C   	   -2.6452700000 	   -2.3538130000 	    0.7961790000
C   	   -3.9398330000 	   -2.0843140000 	    0.3573190000
C   	   -4.2495740000 	   -0.8294400000 	   -0.1484060000
C   	   -3.2758150000 	    0.1656720000 	   -0.2078940000
N   	   -3.6878270000 	    1.4301800000 	   -0.7046560000
C   	   -2.9365920000 	    2.4244170000 	   -0.4530680000
C   	   -1.6389720000 	    2.3483950000 	    0.3148360000
C   	    2.6712470000 	   -0.1043590000 	   -0.1672610000
C   	    3.2126700000 	    0.8201820000 	    0.7285800000
C   	    4.5867370000 	    0.8683460000 	    0.9419950000
C   	    5.4279820000 	    0.0001290000 	    0.2530700000
C   	    4.8935970000 	   -0.9279440000 	   -0.6390470000
C   	    3.5213380000 	   -0.9850190000 	   -0.8408310000
H   	    0.8792730000 	    1.8995490000 	   -0.0595120000
H   	   -0.6570040000 	   -1.5969830000 	    1.0500350000
H   	   -2.3970380000 	   -3.3313930000 	    1.2002360000
H   	   -4.7064150000 	   -2.8529530000 	    0.4102280000
H   	   -5.2483120000 	   -0.5863330000 	   -0.4990060000
H   	   -3.2652500000 	    3.4061770000 	   -0.8013520000
H   	   -1.8794000000 	    2.4959870000 	    1.3808100000
H   	   -0.9721150000 	    3.1653950000 	    0.0237190000
H   	    2.5620120000 	    1.4919720000 	    1.2828140000
H   	    5.0000190000 	    1.5840590000 	    1.6478430000
H   	    6.5022620000 	    0.0437270000 	    0.4141910000
H   	    5.5499300000 	   -1.6084890000 	   -1.1750940000
H   	    3.0800740000 	   -1.7083590000 	   -1.5204750000
