27
tauto -615.748928119
O   	    1.1363800000 	    2.9885090000 	   -0.0087270000
C   	    0.0003700000 	    2.2382690000 	    0.0438250000
C   	   -0.0095730000 	    0.8979100000 	    0.0104620000
C   	    1.2254400000 	    0.0697010000 	   -0.0470540000
C   	    2.3953420000 	    0.4395500000 	    0.6269790000
C   	    3.5360230000 	   -0.3529680000 	    0.5576480000
C   	    3.5320120000 	   -1.5292280000 	   -0.1857860000
C   	    2.3743560000 	   -1.9098570000 	   -0.8582810000
C   	    1.2327990000 	   -1.1202560000 	   -0.7859150000
C   	   -1.3356530000 	    0.2178780000 	    0.0419250000
C   	   -1.5497570000 	   -0.8819160000 	    0.8827690000
C   	   -2.7944480000 	   -1.4949400000 	    0.9515750000
C   	   -3.8536150000 	   -1.0239870000 	    0.1784920000
C   	   -3.6520780000 	    0.0584670000 	   -0.6704710000
C   	   -2.4021380000 	    0.6672410000 	   -0.7435890000
H   	    0.8946120000 	    3.9203460000 	    0.0152590000
H   	   -0.9335550000 	    2.7934020000 	    0.1214320000
H   	    2.4085980000 	    1.3573860000 	    1.2057850000
H   	    4.4334820000 	   -0.0493560000 	    1.0913060000
H   	    4.4250540000 	   -2.1470270000 	   -0.2389950000
H   	    2.3586210000 	   -2.8268360000 	   -1.4424510000
H   	    0.3305270000 	   -1.4261360000 	   -1.3101800000
H   	   -0.7281410000 	   -1.2519650000 	    1.4915530000
H   	   -2.9405000000 	   -2.3427600000 	    1.6164930000
H   	   -4.8269250000 	   -1.5049850000 	    0.2321250000
H   	   -4.4659990000 	    0.4240240000 	   -1.2919860000
H   	   -2.2412920000 	    1.4906450000 	   -1.4360020000
