32
tauto -785.380318463
O   	   -0.7459230000 	   -1.2392580000 	   -0.9264560000
C   	   -1.1929370000 	   -0.2274320000 	   -0.4140120000
C   	   -0.3483650000 	    0.9487550000 	   -0.0702600000
C   	    0.9809430000 	    1.0025350000 	    0.1292390000
C   	    1.9577010000 	   -0.1084860000 	    0.2062590000
C   	    1.6637500000 	   -1.3758190000 	    0.7130140000
C   	    2.6457620000 	   -2.3537540000 	    0.7960120000
C   	    3.9402780000 	   -2.0840390000 	    0.3571510000
C   	    4.2498210000 	   -0.8290940000 	   -0.1485120000
C   	    3.2759220000 	    0.1658890000 	   -0.2079330000
N   	    3.6877700000 	    1.4304580000 	   -0.7046650000
C   	    2.9363850000 	    2.4245860000 	   -0.4531140000
C   	    1.6387090000 	    2.3483850000 	    0.3146460000
C   	   -2.6713600000 	   -0.1045140000 	   -0.1671270000
C   	   -3.2128010000 	    0.8200580000 	    0.7286630000
C   	   -4.5868990000 	    0.8683900000 	    0.9418880000
C   	   -5.4281520000 	    0.0003200000 	    0.2528060000
C   	   -4.8937450000 	   -0.9277950000 	   -0.6392660000
C   	   -3.5214710000 	   -0.9850510000 	   -0.8408420000
H   	   -0.8793850000 	    1.8992290000 	   -0.0593660000
H   	    0.6573670000 	   -1.5972520000 	    1.0498240000
H   	    2.3976790000 	   -3.3313890000 	    1.2000270000
H   	    4.7069830000 	   -2.8525600000 	    0.4100070000
H   	    5.2485200000 	   -0.5858300000 	   -0.4991140000
H   	    3.2649640000 	    3.4064010000 	   -0.8013150000
H   	    0.9717150000 	    3.1651990000 	    0.0233120000
H   	    1.8789630000 	    2.4962340000 	    1.3806220000
H   	   -2.5621370000 	    1.4917380000 	    1.2830250000
H   	   -5.0001690000 	    1.5841300000 	    1.6477160000
H   	   -6.5024520000 	    0.0440530000 	    0.4137450000
H   	   -5.5500840000 	   -1.6082430000 	   -1.1754300000
H   	   -3.0802090000 	   -1.7084510000 	   -1.5204240000
