32
tauto -785.408365924
O   	    1.7160510000 	    1.9193020000 	    0.0615270000
C   	    1.8222870000 	    0.6929910000 	    0.0133130000
C   	    0.7037820000 	   -0.2272290000 	   -0.0699450000
C   	   -0.6200940000 	    0.1306140000 	   -0.0180700000
N   	   -1.5867000000 	   -0.8448780000 	   -0.1344690000
C   	   -2.9527980000 	   -0.6386030000 	   -0.0903330000
C   	   -3.8471610000 	   -1.7091390000 	   -0.2174510000
C   	   -5.2088610000 	   -1.4706480000 	   -0.1674790000
C   	   -5.7023440000 	   -0.1720870000 	    0.0082450000
C   	   -4.8165840000 	    0.8827440000 	    0.1327790000
C   	   -3.4322350000 	    0.6692110000 	    0.0861370000
C   	   -2.4522060000 	    1.7264390000 	    0.2100880000
C   	   -1.1284770000 	    1.4829830000 	    0.1609530000
C   	    3.2115800000 	    0.0981360000 	    0.0131250000
C   	    3.4888650000 	   -1.2174610000 	    0.3905180000
C   	    4.7966300000 	   -1.6934140000 	    0.3837350000
C   	    5.8398300000 	   -0.8601960000 	   -0.0076930000
C   	    5.5728920000 	    0.4562520000 	   -0.3773150000
C   	    4.2684650000 	    0.9325880000 	   -0.3579160000
H   	    0.9279120000 	   -1.2800320000 	   -0.2197870000
H   	   -1.2657830000 	   -1.7947730000 	   -0.2615960000
H   	   -3.4660160000 	   -2.7190810000 	   -0.3541060000
H   	   -5.9001500000 	   -2.3034210000 	   -0.2657660000
H   	   -6.7732760000 	    0.0035700000 	    0.0468620000
H   	   -5.1842820000 	    1.8975210000 	    0.2697260000
H   	   -2.8112820000 	    2.7445690000 	    0.3452550000
H   	   -0.3841010000 	    2.2641840000 	    0.2440490000
H   	    2.6881030000 	   -1.8738920000 	    0.7207230000
H   	    5.0007650000 	   -2.7167980000 	    0.6886280000
H   	    6.8606740000 	   -1.2344280000 	   -0.0185460000
H   	    6.3853790000 	    1.1132150000 	   -0.6777060000
H   	    4.0391210000 	    1.9600000000 	   -0.6248010000
