29
tauto -650.234372337
O   	   -3.5272160000 	    2.2329800000 	    0.6427850000
C   	   -3.1448980000 	    1.1012450000 	    0.3950920000
C   	   -4.0731430000 	   -0.0932690000 	    0.5798770000
C   	   -3.7314430000 	   -1.2425090000 	   -0.3645210000
C   	   -2.2625980000 	   -1.6348680000 	   -0.2203850000
C   	   -1.7806890000 	    0.8223910000 	   -0.0577330000
C   	   -1.3572500000 	   -0.4321140000 	   -0.3269690000
N   	   -0.0602350000 	   -0.7462700000 	   -0.6706860000
N   	    0.8535670000 	    0.2547790000 	   -0.9244460000
C   	    2.1365240000 	    0.1200830000 	   -0.3634290000
C   	    3.2090010000 	    0.7878980000 	   -0.9620000000
C   	    4.4780310000 	    0.7090570000 	   -0.4037970000
C   	    4.6991940000 	   -0.0383590000 	    0.7500320000
C   	    3.6290890000 	   -0.7030250000 	    1.3404770000
C   	    2.3522190000 	   -0.6295490000 	    0.7940520000
H   	   -5.1010750000 	    0.2573420000 	    0.4515670000
H   	   -3.9743480000 	   -0.4259350000 	    1.6236170000
H   	   -3.9203300000 	   -0.9332360000 	   -1.4002330000
H   	   -4.3703230000 	   -2.1102300000 	   -0.1670670000
H   	   -1.9879670000 	   -2.3776040000 	   -0.9813820000
H   	   -2.0924360000 	   -2.1126150000 	    0.7548790000
H   	   -1.1032810000 	    1.6658420000 	   -0.1367790000
H   	    0.0948100000 	   -1.6322710000 	   -1.1385030000
H   	    0.8540530000 	    0.5660550000 	   -1.8898330000
H   	    3.0441760000 	    1.3732180000 	   -1.8651160000
H   	    5.3023380000 	    1.2338980000 	   -0.8802490000
H   	    5.6933020000 	   -0.1014360000 	    1.1832100000
H   	    3.7846550000 	   -1.2871290000 	    2.2442480000
H   	    1.5166050000 	   -1.1411960000 	    1.2611020000
