23
tauto -442.542416597
C   	    4.0182530000 	   -0.4487500000 	    0.1014760000
C   	    2.7359550000 	    0.3406920000 	   -0.1195360000
N   	    1.5870470000 	   -0.5348540000 	    0.0294790000
C   	    0.2755110000 	   -0.1529490000 	    0.0000540000
C   	   -0.0131520000 	    1.3227160000 	    0.1453670000
C   	   -1.4237010000 	    1.6758730000 	   -0.3239290000
C   	   -2.4599950000 	    0.7430300000 	    0.2934990000
C   	   -0.7278440000 	   -1.0651890000 	   -0.1058070000
C   	   -2.1377580000 	   -0.7201620000 	    0.0178130000
O   	   -3.0272940000 	   -1.5546740000 	   -0.0564690000
H   	    4.8902730000 	    0.2048920000 	    0.0098350000
H   	    4.1212400000 	   -1.2482060000 	   -0.6415790000
H   	    4.0279610000 	   -0.9006980000 	    1.0984820000
H   	    2.7585090000 	    0.8124390000 	   -1.1142170000
H   	    2.6749460000 	    1.1472780000 	    0.6200330000
H   	    1.7574290000 	   -1.5165510000 	   -0.1387410000
H   	    0.7219900000 	    1.9052450000 	   -0.4212030000
H   	    0.1200290000 	    1.5998440000 	    1.2017040000
H   	   -1.4653460000 	    1.5878460000 	   -1.4169960000
H   	   -1.6428800000 	    2.7210970000 	   -0.0790590000
H   	   -3.4691860000 	    0.9418180000 	   -0.0781510000
H   	   -2.4851540000 	    0.8774920000 	    1.3848330000
H   	   -0.5044050000 	   -2.1226960000 	   -0.2331730000
