22
tauto -620.875738212
C   	    2.8127390000 	    1.5564590000 	    0.2897790000
C   	    2.1086730000 	    0.2586280000 	    0.1025000000
N   	    2.6664910000 	   -0.9023310000 	   -0.0891090000
N   	    1.6709950000 	   -1.8384450000 	   -0.2412370000
C   	    0.5314150000 	   -1.2294860000 	   -0.0997590000
N   	   -0.7309350000 	   -1.8251990000 	   -0.1864030000
C   	   -1.7758590000 	   -0.9151500000 	   -0.1828570000
C   	   -2.7898390000 	   -0.9727380000 	    0.9162670000
C   	   -1.6195850000 	    0.1262810000 	   -1.0437270000
N   	    0.7390170000 	    0.1224930000 	    0.1297540000
N   	   -0.1549710000 	    1.1674690000 	    0.4097130000
C   	   -1.3478790000 	    1.4046070000 	   -0.3321450000
O   	   -1.9137910000 	    2.4621570000 	   -0.2245020000
H   	    3.8822320000 	    1.3745490000 	    0.1716640000
H   	    2.6480070000 	    1.9760560000 	    1.2900270000
H   	    2.5016730000 	    2.2988750000 	   -0.4537660000
H   	   -0.8072470000 	   -2.7470930000 	    0.2223610000
H   	   -2.3161380000 	   -1.0910180000 	    1.8968570000
H   	   -3.4653060000 	   -1.8239710000 	    0.7625970000
H   	   -3.4014180000 	   -0.0660870000 	    0.9047150000
H   	   -0.8982360000 	   -0.0409910000 	   -1.8443800000
H   	    0.3145920000 	    1.9829060000 	    0.7865590000
