22
tauto -587.692188919
C   	   -1.8913650000 	    2.5655140000 	   -0.5013640000
C   	   -1.5030860000 	    1.2016680000 	   -0.0231020000
N   	   -0.4436240000 	    1.2014250000 	    0.9608610000
C   	    0.7355950000 	    0.5747800000 	    0.4409390000
C   	    1.8996890000 	    1.2956760000 	    0.2173400000
C   	    3.0274850000 	    0.6229870000 	   -0.2409780000
N   	    3.0532400000 	   -0.6902540000 	   -0.4752180000
C   	    1.9287630000 	   -1.3725010000 	   -0.2815460000
C   	    0.7376990000 	   -0.7947940000 	    0.1611030000
N   	   -0.4111680000 	   -1.5775010000 	    0.3673620000
C   	   -2.0716430000 	    0.0704410000 	   -0.4531860000
C   	   -1.7161790000 	   -1.3093440000 	   -0.0351430000
O   	   -2.5319820000 	   -2.2130660000 	   -0.0592930000
H   	   -1.0124270000 	    3.0667310000 	   -0.9239080000
H   	   -2.2298600000 	    3.1768250000 	    0.3422330000
H   	   -2.6773710000 	    2.5256020000 	   -1.2598400000
H   	   -0.7541300000 	    0.6607700000 	    1.7669810000
H   	    1.9158830000 	    2.3604700000 	    0.4282740000
H   	    3.9567600000 	    1.1603070000 	   -0.4189280000
H   	    1.9655920000 	   -2.4426730000 	   -0.4887010000
H   	   -0.2669970000 	   -2.5723110000 	    0.4925650000
H   	   -2.9124710000 	    0.1065560000 	   -1.1397530000
