22
tauto -620.942762355
C   	    3.0499250000 	    1.2244350000 	   -0.2124980000
C   	    2.1783940000 	    0.0242690000 	   -0.1080290000
N   	    2.5233910000 	   -1.2150360000 	   -0.2988150000
N   	    1.4040060000 	   -2.0086520000 	   -0.1292300000
C   	    0.4244000000 	   -1.2183760000 	    0.1910100000
N   	   -0.8840950000 	   -1.5972410000 	    0.4448470000
N   	    0.8428130000 	    0.0775590000 	    0.2321710000
N   	    0.1573150000 	    1.2297250000 	    0.5630790000
C   	   -1.1310240000 	    1.4401030000 	    0.0120060000
C   	   -1.4524380000 	    2.9027990000 	   -0.1004960000
C   	   -1.9861930000 	    0.4848530000 	   -0.3802540000
C   	   -2.0088430000 	   -0.9700840000 	   -0.0848430000
O   	   -3.0405240000 	   -1.5984090000 	   -0.2154680000
H   	    4.0286670000 	    0.9020640000 	   -0.5719500000
H   	    3.1772380000 	    1.7192760000 	    0.7562210000
H   	    2.6320050000 	    1.9557300000 	   -0.9113160000
H   	   -1.0038620000 	   -2.6003890000 	    0.5255150000
H   	    0.2212420000 	    1.4350370000 	    1.5559120000
H   	   -0.7588500000 	    3.3910790000 	   -0.7926400000
H   	   -1.3352510000 	    3.3936430000 	    0.8738130000
H   	   -2.4789280000 	    3.0593620000 	   -0.4379720000
H   	   -2.9074130000 	    0.7989880000 	   -0.8595620000
