23
tauto -571.659351763
C   	    1.8552260000 	    2.5763700000 	   -0.5214930000
C   	    1.5004280000 	    1.2076370000 	   -0.0307570000
N   	    0.4526370000 	    1.1881240000 	    0.9612340000
C   	   -0.7326180000 	    0.5623790000 	    0.4448970000
C   	   -1.8903920000 	    1.3033150000 	    0.2409460000
C   	   -3.0522430000 	    0.6875850000 	   -0.2131440000
C   	   -3.0526890000 	   -0.6827640000 	   -0.4580510000
C   	   -1.8946090000 	   -1.4295150000 	   -0.2751720000
C   	   -0.7241440000 	   -0.8099070000 	    0.1629690000
N   	    0.4445920000 	   -1.5699930000 	    0.3725670000
C   	    2.0873890000 	    0.0858380000 	   -0.4608520000
C   	    1.7451960000 	   -1.2934240000 	   -0.0351710000
O   	    2.5673250000 	   -2.1932320000 	   -0.0591720000
H   	    0.9601280000 	    3.0555490000 	   -0.9358660000
H   	    2.6323910000 	    2.5490690000 	   -1.2897940000
H   	    2.1904370000 	    3.2000320000 	    0.3143810000
H   	    0.7747790000 	    0.6412410000 	    1.7581380000
H   	   -1.8621070000 	    2.3650600000 	    0.4697110000
H   	   -3.9563150000 	    1.2709870000 	   -0.3625790000
H   	   -3.9572110000 	   -1.1754270000 	   -0.8045050000
H   	   -1.8892320000 	   -2.4967250000 	   -0.4864710000
H   	    0.3151390000 	   -2.5660420000 	    0.5014220000
H   	    2.9235090000 	    0.1301050000 	   -1.1527070000
