21
tauto -603.75632198
C   	   -2.5596450000 	   -2.2889000000 	   -0.1743430000
C   	   -1.6840310000 	   -1.0747170000 	   -0.0204340000
N   	   -0.4029380000 	   -1.4014910000 	    0.4035870000
C   	    0.7688250000 	   -0.6880370000 	    0.1873950000
N   	    1.8567580000 	   -1.4439240000 	    0.0708980000
C   	    3.0176680000 	   -0.8263310000 	   -0.1355940000
N   	    3.2024720000 	    0.4793620000 	   -0.2673390000
C   	    2.1015750000 	    1.2246560000 	   -0.1477380000
C   	    0.8362270000 	    0.7117630000 	    0.1080410000
N   	   -0.2299570000 	    1.5839730000 	    0.3599300000
C   	   -2.1622690000 	    0.1566920000 	   -0.2730690000
C   	   -1.5647070000 	    1.4753270000 	   -0.0120660000
O   	   -2.2406710000 	    2.4878440000 	   -0.0566030000
H   	   -2.1533240000 	   -2.9662400000 	   -0.9347770000
H   	   -3.5732710000 	   -2.0074290000 	   -0.4629250000
H   	   -2.6121450000 	   -2.8398890000 	    0.7721200000
H   	   -0.2036930000 	   -2.3919240000 	    0.4672600000
H   	    3.8969280000 	   -1.4625820000 	   -0.2081900000
H   	    2.2316580000 	    2.3037420000 	   -0.2374570000
H   	    0.0244980000 	    2.5544110000 	    0.4957600000
H   	   -3.1914870000 	    0.2390040000 	   -0.6016580000
