14
tauto -378.681743291
O   	   -2.4216260000 	    0.5559910000 	    0.1878780000
C   	   -1.2680370000 	    0.1978190000 	    0.0533350000
N   	   -0.9620790000 	   -1.1744410000 	   -0.0412120000
C   	    0.3669760000 	   -1.4013970000 	   -0.3982430000
C   	    1.2306270000 	   -0.8992090000 	    0.4987390000
N   	    2.0453520000 	    0.1431120000 	    0.0035930000
C   	    1.1807500000 	    1.2294830000 	   -0.1782150000
C   	   -0.1764850000 	    1.2302720000 	   -0.1185860000
H   	   -1.7391040000 	   -1.7533930000 	   -0.3326280000
H   	    0.6316330000 	   -1.5205220000 	   -1.4495970000
H   	    0.9344230000 	   -0.8416310000 	    1.5489850000
H   	    2.9120700000 	    0.3674810000 	    0.4770690000
H   	    1.6882120000 	    2.1754830000 	   -0.3660100000
H   	   -0.6401310000 	    2.2021420000 	   -0.2596850000
