24
tauto -630.61071654
O   	    2.5643410000 	    2.2879000000 	    0.0002850000
C   	    2.4444030000 	    1.0647480000 	    0.0001320000
C   	    1.0857820000 	    0.4354450000 	   -0.0000070000
C   	   -0.0165890000 	    1.2245030000 	   -0.0001750000
C   	   -1.3438420000 	    0.6770740000 	   -0.0002110000
C   	   -2.5039140000 	    1.4721070000 	   -0.0002480000
C   	   -3.7569570000 	    0.8960170000 	   -0.0000740000
C   	   -3.8734970000 	   -0.5031360000 	    0.0002010000
C   	   -2.7539440000 	   -1.3109420000 	    0.0002400000
C   	   -1.4774750000 	   -0.7254890000 	    0.0000090000
N   	   -0.3422780000 	   -1.5011290000 	    0.0000760000
C   	    0.9490580000 	   -1.0117770000 	   -0.0000880000
C   	    2.0501520000 	   -1.8195410000 	   -0.0003010000
C   	    3.3455670000 	   -1.2113630000 	   -0.0001110000
C   	    3.5574750000 	    0.1318190000 	    0.0001240000
H   	    0.1345990000 	    2.3026780000 	   -0.0001270000
H   	   -2.3906180000 	    2.5538190000 	   -0.0005220000
H   	   -4.6480020000 	    1.5163760000 	   -0.0001260000
H   	   -4.8588400000 	   -0.9616540000 	    0.0004010000
H   	   -2.8523050000 	   -2.3943260000 	    0.0003990000
H   	   -0.4576030000 	   -2.5051050000 	    0.0006790000
H   	    1.9529170000 	   -2.9016430000 	   -0.0005630000
H   	    4.2069670000 	   -1.8771440000 	   -0.0001980000
H   	    4.5567930000 	    0.5549100000 	    0.0002980000
