16
tauto -454.961929404
O   	   -3.2846150000 	    0.0088170000 	    0.0009350000
C   	   -2.0703810000 	   -0.0600170000 	   -0.0001140000
N   	   -1.2277640000 	    1.0800180000 	   -0.0013690000
C   	    0.0961640000 	    0.7282160000 	   -0.0003990000
C   	    1.2461390000 	    1.4461910000 	    0.0000580000
C   	    2.4928920000 	    0.7330470000 	    0.0005870000
C   	    2.5054870000 	   -0.6207810000 	    0.0003760000
N   	    1.3283630000 	   -1.3383580000 	   -0.0002450000
C   	    0.1060040000 	   -0.7323760000 	   -0.0002660000
C   	   -1.1702100000 	   -1.2096140000 	   -0.0003070000
H   	   -1.5983130000 	    2.0165150000 	    0.0024990000
H   	    1.2368370000 	    2.5322630000 	    0.0000150000
H   	    3.4317520000 	    1.2746200000 	    0.0009880000
H   	    3.4131930000 	   -1.2125540000 	    0.0005350000
H   	    1.3661690000 	   -2.3465820000 	    0.0003040000
H   	   -1.5134810000 	   -2.2343950000 	   -0.0001340000
