32
tauto -764.571365669
C   	   -1.4957800000 	   -2.9232540000 	   -0.0001000000
C   	   -1.5469560000 	   -1.4155030000 	   -0.0000490000
C   	   -0.2664980000 	   -0.6857480000 	   -0.0000860000
N   	    0.8341180000 	   -1.3634600000 	   -0.0000910000
C   	    2.0558670000 	   -0.7099700000 	   -0.0000480000
C   	    3.2385120000 	   -1.4620600000 	   -0.0000530000
C   	    4.4695060000 	   -0.8342470000 	    0.0000250000
C   	    4.5329970000 	    0.5660610000 	    0.0001140000
C   	    3.3792560000 	    1.3296360000 	    0.0001130000
C   	    2.1333060000 	    0.6907610000 	    0.0000250000
N   	    0.9488120000 	    1.3912390000 	   -0.0000020000
C   	   -0.2952840000 	    0.7964750000 	   -0.0000510000
C   	   -1.4582730000 	    1.4975030000 	   -0.0000730000
C   	   -1.5742490000 	    2.9957630000 	   -0.0001380000
C   	   -2.7054780000 	   -0.7233440000 	    0.0000660000
C   	   -4.0653740000 	   -1.3563320000 	    0.0002060000
C   	   -2.7229480000 	    0.7686690000 	    0.0000760000
O   	   -3.7970030000 	    1.3658470000 	    0.0000010000
H   	   -0.4628590000 	   -3.2712140000 	   -0.0008940000
H   	   -1.9991270000 	   -3.3314010000 	   -0.8830980000
H   	   -1.9977130000 	   -3.3314120000 	    0.8837080000
H   	    3.1464460000 	   -2.5444210000 	   -0.0001150000
H   	    5.3839620000 	   -1.4198220000 	    0.0000210000
H   	    5.4993040000 	    1.0632590000 	    0.0001830000
H   	    3.4312590000 	    2.4163830000 	    0.0001750000
H   	    0.9916800000 	    2.3994390000 	    0.0002580000
H   	   -0.6107410000 	    3.5165780000 	   -0.0009460000
H   	   -2.1350400000 	    3.3342600000 	    0.8770870000
H   	   -2.1363130000 	    3.3340010000 	   -0.8766410000
H   	   -4.0187560000 	   -2.4468470000 	    0.0004210000
H   	   -4.6341380000 	   -1.0234110000 	   -0.8741710000
H   	   -4.6340710000 	   -1.0230790000 	    0.8744970000
