43
tauto -1103.96887829
C   	    0.2793850000 	   -3.1924580000 	   -0.9151030000
N   	    0.0817680000 	   -1.7562310000 	   -0.7831520000
C   	    1.1972460000 	   -0.9977330000 	   -0.4314430000
N   	    2.3206580000 	   -1.6229100000 	   -0.2130950000
C   	    3.4008120000 	   -0.8785480000 	    0.1669430000
C   	    4.6428760000 	   -1.5100790000 	    0.4085980000
C   	    5.7143220000 	   -0.7676450000 	    0.8388390000
C   	    5.5901040000 	    0.6278070000 	    1.0405570000
C   	    4.3958100000 	    1.2590430000 	    0.8009110000
C   	    3.2794880000 	    0.5121980000 	    0.3549220000
N   	    2.1102500000 	    1.1552240000 	    0.0700740000
C   	    1.0876490000 	    0.4513720000 	   -0.3417820000
N   	   -1.0978030000 	   -1.4515840000 	   -0.0796070000
C   	   -1.9547100000 	   -0.5003550000 	   -0.7597690000
C   	   -3.2370340000 	   -0.3632740000 	    0.0533890000
C   	   -4.3097470000 	   -1.2221780000 	   -0.1907730000
C   	   -5.4638320000 	   -1.1487470000 	    0.5804080000
C   	   -5.5560450000 	   -0.2134280000 	    1.6085670000
C   	   -4.4911280000 	    0.6450280000 	    1.8612900000
C   	   -3.3361470000 	    0.5704590000 	    1.0870280000
C   	   -1.3380450000 	    0.8500570000 	   -1.0435650000
O   	   -2.1888420000 	    1.7595040000 	   -1.5953930000
C   	   -0.0695640000 	    1.2460600000 	   -0.8230540000
O   	    0.2526850000 	    2.5361920000 	   -1.1676750000
C   	   -0.0053300000 	    3.4803770000 	   -0.1441380000
H   	    0.5535930000 	   -3.6644770000 	    0.0375520000
H   	    1.0771900000 	   -3.3820570000 	   -1.6348620000
H   	   -0.6581570000 	   -3.6183850000 	   -1.2767520000
H   	    4.7113050000 	   -2.5828360000 	    0.2519360000
H   	    6.6688360000 	   -1.2521860000 	    1.0276210000
H   	    6.4500690000 	    1.1985050000 	    1.3809210000
H   	    4.2710370000 	    2.3299630000 	    0.9333320000
H   	   -0.8981080000 	   -1.1505680000 	    0.8733250000
H   	   -2.2080280000 	   -0.9504990000 	   -1.7296910000
H   	   -4.2318470000 	   -1.9590840000 	   -0.9875880000
H   	   -6.2929790000 	   -1.8219570000 	    0.3791440000
H   	   -6.4592940000 	   -0.1528160000 	    2.2100480000
H   	   -4.5580700000 	    1.3781870000 	    2.6607650000
H   	   -2.5062550000 	    1.2484930000 	    1.2812440000
H   	   -3.0952850000 	    1.4380320000 	   -1.4884340000
H   	    0.2936530000 	    4.4541970000 	   -0.5390170000
H   	    0.5860710000 	    3.2553460000 	    0.7513750000
H   	   -1.0752500000 	    3.5073640000 	    0.1031360000
