18
tauto -422.866859109
O   	   -3.3363940000 	    0.1438420000 	    0.0003010000
C   	   -1.9827640000 	    0.1118610000 	   -0.0001180000
C   	   -1.2047040000 	   -1.1834600000 	    0.0000950000
C   	   -1.1749880000 	    1.1841860000 	   -0.0001200000
C   	    0.2149600000 	    0.7144390000 	    0.0000490000
C   	    0.2226300000 	   -0.6922980000 	    0.0000630000
C   	    1.4107730000 	   -1.4000330000 	   -0.0000170000
C   	    2.6160170000 	   -0.6927070000 	   -0.0000260000
C   	    2.6129880000 	    0.7002160000 	   -0.0000150000
C   	    1.4154630000 	    1.4159300000 	    0.0000190000
H   	   -3.6753690000 	   -0.7592400000 	   -0.0021300000
H   	   -1.4372000000 	   -1.7906110000 	   -0.8855850000
H   	   -1.4374280000 	   -1.7901900000 	    0.8859870000
H   	   -1.4941240000 	    2.2195380000 	   -0.0001540000
H   	    1.4123520000 	   -2.4884100000 	   -0.0000190000
H   	    3.5596040000 	   -1.2321090000 	   -0.0000440000
H   	    3.5581410000 	    1.2380420000 	   -0.0000400000
H   	    1.4229210000 	    2.5034390000 	   -0.0000050000
