24
tauto -630.611948072
O   	    4.4959560000 	   -0.9514460000 	    0.0000500000
C   	    3.3887850000 	   -0.4223340000 	    0.0000130000
C   	    2.1452750000 	   -1.1769700000 	   -0.0002550000
C   	    0.9367170000 	   -0.5538420000 	   -0.0001580000
N   	   -0.2539690000 	   -1.2530020000 	   -0.0001460000
C   	   -1.5082530000 	   -0.6854160000 	   -0.0000650000
C   	   -2.6631810000 	   -1.4820760000 	    0.0001160000
C   	   -3.9073800000 	   -0.8817700000 	    0.0002180000
C   	   -4.0332560000 	    0.5152160000 	    0.0000740000
C   	   -2.8972840000 	    1.2993600000 	   -0.0001100000
C   	   -1.6184970000 	    0.7175080000 	   -0.0001740000
C   	   -0.4025870000 	    1.4876970000 	   -0.0001480000
C   	    0.8212900000 	    0.9044840000 	   -0.0000570000
C   	    2.0595980000 	    1.6664260000 	    0.0001460000
C   	    3.2544600000 	    1.0573940000 	    0.0002660000
H   	    2.2262280000 	   -2.2610190000 	   -0.0005440000
H   	   -0.1922150000 	   -2.2616310000 	    0.0010910000
H   	   -2.5703970000 	   -2.5659510000 	    0.0000860000
H   	   -4.7983750000 	   -1.5040250000 	    0.0003550000
H   	   -5.0172420000 	    0.9741020000 	    0.0001060000
H   	   -2.9764110000 	    2.3844570000 	   -0.0002740000
H   	   -0.4795260000 	    2.5740910000 	   -0.0000770000
H   	    1.9780930000 	    2.7518190000 	    0.0002100000
H   	    4.1858500000 	    1.6166620000 	    0.0004630000
