16
tauto -379.947303179
O   	   -2.2212440000 	   -0.0620030000 	   -0.5921510000
C   	   -1.2384200000 	    0.1763870000 	    0.0743390000
N   	   -0.6208270000 	   -0.8167830000 	    0.8924290000
C   	    0.3071560000 	   -1.6557520000 	    0.1361730000
C   	    1.2902360000 	   -0.7786000000 	   -0.6615890000
N   	    1.6776620000 	    0.4269580000 	    0.0787560000
C   	    0.8244990000 	    1.5190640000 	    0.1102570000
C   	   -0.5240520000 	    1.4758180000 	    0.0846470000
H   	   -0.0667400000 	   -0.3417000000 	    1.5997280000
H   	   -0.2539690000 	   -2.3028660000 	   -0.5448210000
H   	    0.8383450000 	   -2.2926760000 	    0.8507260000
H   	    0.8110780000 	   -0.4773710000 	   -1.6053730000
H   	    2.2000490000 	   -1.3349880000 	   -0.9074780000
H   	    2.6475020000 	    0.6787560000 	   -0.0323500000
H   	    1.3323970000 	    2.4816440000 	    0.1403390000
H   	   -1.0930610000 	    2.3924860000 	   -0.0248200000
