32
tauto -689.595602052
O   	   -0.6021240000 	    2.5071440000 	   -0.0005190000
C   	    0.3236950000 	    1.7095030000 	   -0.0002460000
N   	    0.1423090000 	    0.3011700000 	   -0.0000610000
C   	   -1.1594290000 	   -0.3567990000 	    0.0002290000
C   	   -1.9566160000 	   -0.0278010000 	   -1.2675570000
C   	   -3.3121700000 	   -0.7388280000 	   -1.2609390000
C   	   -4.1116530000 	   -0.4014590000 	   -0.0000780000
C   	   -3.3123990000 	   -0.7378140000 	    1.2611970000
C   	   -1.9569030000 	   -0.0266560000 	    1.2675550000
C   	    1.3610120000 	   -0.3318250000 	    0.0000700000
C   	    1.7188850000 	   -1.6421000000 	    0.0001000000
C   	    3.1162430000 	   -1.9696670000 	    0.0001820000
C   	    4.0503120000 	   -0.9892830000 	    0.0001670000
N   	    3.6761160000 	    0.3365750000 	   -0.0000060000
C   	    2.3689020000 	    0.7239860000 	    0.0000130000
C   	    1.7610600000 	    1.9421330000 	   -0.0001640000
H   	   -0.9553520000 	   -1.4367340000 	    0.0008650000
H   	   -1.3705220000 	   -0.3173490000 	   -2.1487060000
H   	   -2.0969500000 	    1.0582520000 	   -1.3092750000
H   	   -3.1566240000 	   -1.8274610000 	   -1.3088330000
H   	   -3.8792120000 	   -0.4652640000 	   -2.1587010000
H   	   -5.0673820000 	   -0.9396610000 	    0.0000560000
H   	   -4.3490040000 	    0.6716380000 	   -0.0005190000
H   	   -3.1567740000 	   -1.8264000000 	    1.3099450000
H   	   -3.8796640000 	   -0.4636320000 	    2.1586310000
H   	   -1.3709970000 	   -0.3154150000 	    2.1490890000
H   	   -2.0973920000 	    1.0593860000 	    1.3083340000
H   	    0.9791440000 	   -2.4367490000 	    0.0000750000
H   	    3.4320720000 	   -3.0065760000 	    0.0002280000
H   	    5.1179420000 	   -1.1741890000 	    0.0001690000
H   	    4.3892110000 	    1.0504420000 	    0.0003940000
H   	    2.2038940000 	    2.9279940000 	   -0.0003000000
