14
tauto -324.623021513
O   	    2.3458330000 	    0.0050490000 	    0.1018960000
C   	    1.1323940000 	    0.0442240000 	   -0.0033030000
C   	    0.3494750000 	    1.2784510000 	    0.0536550000
C   	   -0.9985980000 	    1.2444900000 	   -0.0596130000
N   	   -1.7280370000 	    0.0903540000 	   -0.1429250000
C   	   -1.0803990000 	   -1.1337090000 	    0.3056420000
C   	    0.3188800000 	   -1.2163510000 	   -0.2932720000
H   	    0.8783740000 	    2.2225900000 	    0.1146530000
H   	   -1.5808900000 	    2.1621830000 	   -0.1102150000
H   	   -2.7141740000 	    0.1720020000 	    0.0519370000
H   	   -1.6889800000 	   -1.9899370000 	    0.0001870000
H   	   -1.0056690000 	   -1.1411340000 	    1.4057830000
H   	    0.2475060000 	   -1.3173160000 	   -1.3847760000
H   	    0.8629210000 	   -2.0838870000 	    0.0890880000
