17
tauto -455.143637315
C   	   -2.5434260000 	   -0.7476720000 	    0.5881700000
C   	   -1.5012610000 	   -0.9608410000 	   -0.5135480000
C   	   -0.2216540000 	   -0.2322330000 	   -0.2397250000
C   	    1.0281770000 	   -0.6933540000 	   -0.0228670000
N   	    1.5788100000 	   -1.9507730000 	   -0.1012130000
N   	    1.9055140000 	    0.3437350000 	    0.3194760000
O   	    1.1794540000 	    1.5385070000 	    0.1846820000
C   	   -0.1412380000 	    1.2128270000 	   -0.1209760000
O   	   -0.9755390000 	    2.0760090000 	   -0.2175910000
H   	   -3.4829030000 	   -1.2539340000 	    0.3429520000
H   	   -2.7464840000 	    0.3207390000 	    0.7064790000
H   	   -2.1836650000 	   -1.1355600000 	    1.5474270000
H   	   -1.9112160000 	   -0.6137050000 	   -1.4700130000
H   	   -1.3005480000 	   -2.0334150000 	   -0.6405440000
H   	    0.9023570000 	   -2.6968260000 	   -0.1853690000
H   	    2.2789470000 	   -2.1450530000 	    0.6028910000
H   	    2.6983340000 	    0.4185240000 	   -0.3147130000
