10
tauto -396.381170845
O   	    2.3156800000 	   -0.4693140000 	    0.0263530000
C   	    1.0140390000 	   -0.2241270000 	    0.0076020000
O   	    0.6834490000 	    1.0824060000 	    0.0249440000
N   	   -0.7192320000 	    1.1155600000 	   -0.1529030000
C   	   -0.0361650000 	   -1.0652380000 	   -0.0390970000
C   	   -1.2165730000 	   -0.2229020000 	   -0.0211070000
O   	   -2.4012880000 	   -0.4563230000 	    0.0587240000
H   	    2.7960060000 	    0.3725210000 	    0.0319280000
H   	   -1.0939740000 	    1.7808220000 	    0.5165870000
H   	   -0.0179480000 	   -2.1428140000 	   -0.0427460000
