14
tauto -415.830184079
C   	   -1.7795450000 	   -1.4423620000 	    0.1351060000
N   	   -0.7390860000 	   -0.5318130000 	   -0.2708490000
C   	   -0.7658120000 	    0.8260390000 	   -0.0436190000
C   	    0.6792500000 	    1.2764660000 	   -0.0098680000
O   	   -1.7770310000 	    1.4823580000 	    0.0689840000
O   	    0.5589750000 	   -1.0642230000 	   -0.0925990000
C   	    1.4471630000 	   -0.0134950000 	    0.0097490000
N   	    2.6909270000 	   -0.1629830000 	    0.1100820000
H   	   -2.7123530000 	   -0.8776480000 	    0.0871430000
H   	   -1.6124840000 	   -1.8000050000 	    1.1575940000
H   	   -1.8249500000 	   -2.2904540000 	   -0.5515980000
H   	    0.8793800000 	    1.8858500000 	    0.8742550000
H   	    0.9237980000 	    1.8734820000 	   -0.8932100000
H   	    2.9418250000 	   -1.1526300000 	    0.0918910000
