15
tauto -304.741490115
N   	    2.3332770000 	    0.0007010000 	   -0.1343380000
C   	    0.9687620000 	    0.0936510000 	    0.0029450000
C   	    0.2567210000 	    1.2383550000 	   -0.0745900000
C   	   -1.1910800000 	    1.1743780000 	    0.1090890000
N   	   -1.9148440000 	    0.1207080000 	    0.0647580000
C   	   -1.1958880000 	   -1.1025340000 	   -0.2767760000
C   	    0.2247940000 	   -1.1876980000 	    0.2816360000
H   	    2.8654030000 	    0.8539770000 	   -0.0422290000
H   	    2.7807600000 	   -0.8085380000 	    0.2697370000
H   	    0.7372240000 	    2.2050070000 	   -0.2029650000
H   	   -1.7097580000 	    2.1163180000 	    0.3082100000
H   	   -1.1507680000 	   -1.1642160000 	   -1.3754140000
H   	   -1.7830550000 	   -1.9605410000 	    0.0658110000
H   	    0.7499380000 	   -2.0429260000 	   -0.1601880000
H   	    0.2013700000 	   -1.3458580000 	    1.3702720000
