18
tauto -422.868646215
O   	   -2.2771850000 	   -1.5308850000 	    0.0000430000
C   	   -1.5927230000 	   -0.3617450000 	    0.0000100000
C   	   -2.0312950000 	    0.9081350000 	   -0.0000020000
C   	   -0.8569870000 	    1.8567760000 	    0.0000020000
C   	    0.3310790000 	    0.9219810000 	   -0.0000110000
C   	   -0.1248400000 	   -0.4007930000 	   -0.0000150000
C   	    0.7558330000 	   -1.4745380000 	   -0.0000100000
C   	    2.1218560000 	   -1.2005790000 	    0.0000030000
C   	    2.5848170000 	    0.1161450000 	    0.0000000000
C   	    1.6915350000 	    1.1886100000 	   -0.0000020000
H   	   -3.2230680000 	   -1.3357810000 	   -0.0002920000
H   	   -3.0676680000 	    1.2300780000 	    0.0000020000
H   	   -0.8520640000 	    2.5122450000 	    0.8813520000
H   	   -0.8520760000 	    2.5123610000 	   -0.8812540000
H   	    0.3848370000 	   -2.4959760000 	   -0.0000110000
H   	    2.8362580000 	   -2.0200680000 	    0.0000150000
H   	    3.6549540000 	    0.3080350000 	    0.0000060000
H   	    2.0606520000 	    2.2122330000 	   -0.0000140000
