14
tauto -415.832749311
C   	   -0.0547730000 	    2.1565830000 	   -0.0136760000
C   	   -0.0108810000 	    0.6624150000 	    0.0049780000
C   	    1.0573520000 	   -0.1860930000 	   -0.0064280000
N   	    2.4133990000 	    0.0345260000 	   -0.0708700000
O   	    0.6684560000 	   -1.4662110000 	   -0.0078020000
N   	   -0.7314080000 	   -1.5154800000 	   -0.0010830000
C   	   -1.0917250000 	   -0.2589620000 	    0.0103200000
O   	   -2.3857390000 	    0.1009480000 	    0.0147980000
H   	    0.7823270000 	    2.5675260000 	   -0.5893600000
H   	   -0.0194900000 	    2.5916180000 	    0.9925260000
H   	   -0.9798510000 	    2.5007950000 	   -0.4853330000
H   	    2.7235840000 	    0.8733520000 	    0.3983010000
H   	    2.9686570000 	   -0.7750110000 	    0.1712810000
H   	   -2.9107460000 	   -0.7131550000 	   -0.0108750000
