14
tauto -378.759786561
N   	   -1.9326010000 	   -1.1318990000 	   -0.0817710000
C   	   -0.6404140000 	   -0.6370770000 	   -0.0174850000
C   	    0.4848840000 	   -1.3945120000 	   -0.0079920000
N   	    1.7350060000 	   -0.8061110000 	    0.0113820000
C   	    1.8791240000 	    0.5411410000 	    0.0055080000
C   	    0.7989720000 	    1.3663070000 	   -0.0061340000
C   	   -0.5475480000 	    0.8395370000 	   -0.0061930000
O   	   -1.5759810000 	    1.5207160000 	    0.0161730000
H   	   -2.1153460000 	   -1.9804590000 	    0.4333260000
H   	   -2.5945070000 	   -0.3873340000 	    0.1139700000
H   	    0.4715660000 	   -2.4793920000 	   -0.0225010000
H   	    2.5505480000 	   -1.3961610000 	    0.0154590000
H   	    2.9004830000 	    0.9086270000 	    0.0153870000
H   	    0.9281610000 	    2.4426840000 	    0.0014790000
