14
tauto -378.760264711
N   	    2.4219600000 	   -0.8113050000 	   -0.0774980000
C   	    1.1203600000 	   -0.3096510000 	   -0.0054780000
N   	    1.0529860000 	    1.0628830000 	    0.0070530000
C   	   -0.1642940000 	    1.7080360000 	    0.0015570000
C   	   -1.3228710000 	    1.0249650000 	    0.0098510000
C   	   -0.0128800000 	   -1.0571890000 	    0.0084660000
C   	   -1.3389510000 	   -0.4475660000 	   -0.0019750000
O   	   -2.3804830000 	   -1.0968750000 	   -0.0010710000
H   	    3.0347330000 	   -0.4508680000 	    0.6452130000
H   	    2.4401400000 	   -1.8228450000 	   -0.0738190000
H   	    1.8924330000 	    1.5798740000 	   -0.2050360000
H   	   -0.1090270000 	    2.7921260000 	   -0.0019550000
H   	   -2.2744920000 	    1.5445770000 	    0.0216410000
H   	    0.0472750000 	   -2.1404880000 	    0.0411150000
