15
tauto -362.726794624
C   	    2.5151960000 	   -0.8082670000 	    0.0000730000
C   	    1.1123170000 	   -0.2742760000 	   -0.0000980000
N   	    0.9952240000 	    1.0970330000 	   -0.0000070000
C   	   -0.2325570000 	    1.7085570000 	    0.0000130000
C   	   -1.3759890000 	    0.9940070000 	   -0.0000050000
C   	   -0.0019140000 	   -1.0429870000 	   -0.0001170000
C   	   -1.3524260000 	   -0.4733750000 	   -0.0000110000
O   	   -2.3692530000 	   -1.1601540000 	    0.0000790000
H   	    3.0643340000 	   -0.4719200000 	    0.8874290000
H   	    3.0650710000 	   -0.4706090000 	   -0.8863220000
H   	    2.5054690000 	   -1.8997970000 	   -0.0007340000
H   	    1.8300810000 	    1.6615990000 	    0.0000570000
H   	   -0.2107600000 	    2.7941630000 	   -0.0000020000
H   	   -2.3395790000 	    1.4914690000 	    0.0000020000
H   	    0.0850760000 	   -2.1248560000 	   -0.0001510000
