18
tauto -402.038834884
C   	   -2.4272250000 	   -1.4262230000 	   -0.0000010000
C   	   -1.2059550000 	   -0.5534370000 	   -0.0000040000
N   	   -0.0000010000 	   -1.2181320000 	    0.0000940000
C   	    1.2059530000 	   -0.5534400000 	   -0.0000630000
C   	    2.4272220000 	   -1.4262280000 	    0.0000440000
C   	    1.2286650000 	    0.7984130000 	   -0.0000720000
C   	   -1.2286630000 	    0.7984150000 	    0.0000020000
C   	    0.0000020000 	    1.5972530000 	   -0.0000100000
O   	    0.0000030000 	    2.8249840000 	    0.0000330000
H   	   -2.4505590000 	   -2.0709380000 	   -0.8866780000
H   	   -3.3313180000 	   -0.8144790000 	    0.0000410000
H   	   -2.4505130000 	   -2.0709750000 	    0.8866480000
H   	   -0.0000030000 	   -2.2271730000 	   -0.0004930000
H   	    2.4501590000 	   -2.0716500000 	   -0.8861280000
H   	    2.4509040000 	   -2.0702730000 	    0.8871970000
H   	    3.3313160000 	   -0.8144870000 	   -0.0007980000
H   	    2.1751890000 	    1.3292550000 	   -0.0001070000
H   	   -2.1751840000 	    1.3292610000 	    0.0000200000
