17
tauto -476.032234761
C   	    2.5716360000 	   -1.4360730000 	    0.0000200000
C   	    1.9756850000 	   -0.0545630000 	   -0.0005170000
C   	    0.4808480000 	    0.0908570000 	   -0.0003850000
N   	    0.0672700000 	    1.3943350000 	   -0.0003990000
C   	   -1.2599750000 	    1.7065730000 	   -0.0001000000
C   	   -2.2122890000 	    0.7453350000 	    0.0001430000
C   	   -0.4127770000 	   -0.9263770000 	   -0.0001120000
C   	   -1.8627780000 	   -0.6763050000 	    0.0000380000
O   	   -2.6878340000 	   -1.5831100000 	    0.0005620000
O   	    2.6554640000 	    0.9542240000 	    0.0003410000
H   	    2.2427180000 	   -1.9966250000 	   -0.8812220000
H   	    2.2480770000 	   -1.9929340000 	    0.8856480000
H   	    3.6589180000 	   -1.3495880000 	   -0.0032370000
H   	    0.7967760000 	    2.0960360000 	   -0.0004050000
H   	   -1.4913170000 	    2.7672160000 	   -0.0001020000
H   	   -3.2635310000 	    1.0109880000 	    0.0003810000
H   	   -0.0856750000 	   -1.9610310000 	   -0.0000170000
