13
tauto -232.37399767
C   	   -1.8616060000 	   -0.0551980000 	   -0.4096690000
C   	   -0.7506270000 	   -0.4640470000 	    0.5634950000
C   	    0.6154500000 	   -0.0322140000 	    0.1010970000
O   	    0.8055030000 	    1.3204390000 	   -0.0064530000
C   	    1.6007560000 	   -0.8632480000 	   -0.2308120000
H   	   -2.8409010000 	   -0.3759540000 	   -0.0410490000
H   	   -1.6957760000 	   -0.5101240000 	   -1.3912300000
H   	   -1.9016470000 	    1.0307430000 	   -0.5535100000
H   	   -0.7505070000 	   -1.5499750000 	    0.6959260000
H   	   -0.9476470000 	   -0.0285190000 	    1.5547790000
H   	    0.0509730000 	    1.7778290000 	    0.3834330000
H   	    1.4578270000 	   -1.9361390000 	   -0.1748110000
H   	    2.5598130000 	   -0.4831370000 	   -0.5665770000
