30
tauto -857.687659712
C   	    3.9744370000 	   -2.3898970000 	   -0.9372730000
C   	    3.2847470000 	   -2.1961250000 	    0.3983270000
O   	    2.1521730000 	   -1.3091180000 	    0.2729470000
C   	    2.4257480000 	    0.0058710000 	    0.2864160000
C   	    1.1772710000 	    0.8186390000 	    0.1388150000
N   	   -0.0000640000 	    0.1358760000 	    0.0003240000
C   	   -1.1773810000 	    0.8185600000 	   -0.1387430000
C   	   -2.4257850000 	    0.0056800000 	   -0.2863540000
O   	   -2.1520320000 	   -1.3092580000 	   -0.2736880000
C   	   -3.2846490000 	   -2.1963190000 	   -0.3983330000
C   	   -3.9740300000 	   -2.3899430000 	    0.9374620000
O   	   -3.5281160000 	    0.4783520000 	   -0.4059980000
C   	   -1.2205710000 	    2.1707600000 	   -0.1427670000
C   	    1.2204000000 	    2.1708440000 	    0.1424910000
C   	   -0.0001190000 	    2.9745520000 	   -0.0000900000
O   	   -0.0001660000 	    4.1989180000 	   -0.0000550000
O   	    3.5279770000 	    0.4786530000 	    0.4065360000
H   	    4.7807320000 	   -3.1231500000 	   -0.8333200000
H   	    4.4084600000 	   -1.4489120000 	   -1.2854150000
H   	    3.2687550000 	   -2.7580650000 	   -1.6881190000
H   	    3.9667060000 	   -1.7818520000 	    1.1448020000
H   	    2.8557160000 	   -3.1273880000 	    0.7740620000
H   	    0.0000230000 	   -0.8743820000 	   -0.0002780000
H   	   -2.8556050000 	   -3.1276670000 	   -0.7738250000
H   	   -3.9668010000 	   -1.7824030000 	   -1.1448470000
H   	   -3.2680640000 	   -2.7577790000 	    1.6882060000
H   	   -4.7800900000 	   -3.1235080000 	    0.8338040000
H   	   -4.4082860000 	   -1.4490600000 	    1.2855190000
H   	   -2.1746390000 	    2.6733910000 	   -0.2550500000
H   	    2.1744530000 	    2.6735520000 	    0.2545540000
