25
tauto -614.56372485
O   	    1.5369430000 	    3.1412990000 	   -0.0001020000
C   	    0.3043190000 	    2.5756480000 	    0.0002510000
C   	    0.1242210000 	    1.2504930000 	   -0.0001460000
C   	   -1.1861530000 	    0.5666230000 	   -0.0000970000
C   	   -2.4828460000 	    1.0679100000 	   -0.0002430000
C   	   -3.5518800000 	    0.1746290000 	   -0.0001340000
C   	   -3.3302830000 	   -1.2033100000 	    0.0000800000
C   	   -2.0334160000 	   -1.7109460000 	    0.0001630000
C   	   -0.9642140000 	   -0.8232630000 	    0.0000670000
C   	    0.4887740000 	   -1.0604930000 	    0.0000570000
C   	    1.1449760000 	    0.1861100000 	   -0.0001570000
C   	    2.5349150000 	    0.2501980000 	   -0.0002830000
C   	    3.2582940000 	   -0.9411510000 	   -0.0001480000
C   	    2.6079160000 	   -2.1756830000 	    0.0000890000
C   	    1.2164090000 	   -2.2437050000 	    0.0001900000
H   	    1.4502920000 	    4.1008260000 	    0.0026470000
H   	   -0.5409060000 	    3.2632850000 	    0.0005710000
H   	   -2.6727490000 	    2.1396870000 	   -0.0005180000
H   	   -4.5698640000 	    0.5562510000 	   -0.0002540000
H   	   -4.1768470000 	   -1.8851970000 	    0.0001490000
H   	   -1.8634220000 	   -2.7855260000 	    0.0003050000
H   	    3.0423470000 	    1.2095760000 	   -0.0005090000
H   	    4.3450530000 	   -0.9071850000 	   -0.0002590000
H   	    3.1920510000 	   -3.0926350000 	    0.0001750000
H   	    0.7123050000 	   -3.2078300000 	    0.0003710000
