18
tauto -551.245230904
C   	    3.6107600000 	   -0.9260030000 	   -0.0000660000
C   	    2.4279520000 	   -0.0027740000 	   -0.0000640000
O   	    1.2796900000 	   -0.7254930000 	    0.0002450000
C   	    0.0016590000 	   -0.2012270000 	    0.0000490000
N   	   -0.1679460000 	    1.1522320000 	    0.0000780000
C   	   -1.4410160000 	    1.6690930000 	    0.0000470000
C   	   -2.5328130000 	    0.8790910000 	   -0.0000080000
C   	   -1.0345250000 	   -1.0670730000 	   -0.0000390000
C   	   -2.4167100000 	   -0.5854470000 	   -0.0000530000
O   	   -3.3866570000 	   -1.3353570000 	   -0.0000800000
O   	    2.4831630000 	    1.2043930000 	   -0.0001760000
H   	    3.5775650000 	   -1.5702660000 	    0.8830340000
H   	    4.5266110000 	   -0.3355630000 	   -0.0009540000
H   	    3.5766090000 	   -1.5718320000 	   -0.8819430000
H   	    0.6565370000 	    1.7388290000 	    0.0001910000
H   	   -1.4902030000 	    2.7529400000 	    0.0000380000
H   	   -3.5269210000 	    1.3119400000 	   -0.0000060000
H   	   -0.8459870000 	   -2.1339800000 	   -0.0000260000
