19
tauto -531.397994734
C   	    3.5516680000 	    0.5082220000 	    0.0132880000
C   	    2.2546200000 	   -0.2723990000 	   -0.0070180000
N   	    1.1228590000 	    0.4875850000 	   -0.0103720000
C   	   -0.1940830000 	    0.0322540000 	   -0.0046380000
C   	   -0.5904570000 	   -1.2653390000 	   -0.0023220000
N   	   -1.9320420000 	   -1.5657950000 	    0.0032380000
C   	   -2.8842580000 	   -0.5966080000 	    0.0063840000
C   	   -2.5525360000 	    0.7195010000 	    0.0042340000
C   	   -1.1674900000 	    1.1370110000 	   -0.0016270000
O   	   -0.7774830000 	    2.3091730000 	   -0.0039400000
O   	    2.2347530000 	   -1.4952770000 	   -0.0062980000
H   	    4.0417320000 	    0.3501090000 	    0.9786890000
H   	    3.4148690000 	    1.5814850000 	   -0.1431430000
H   	    4.2119690000 	    0.1097600000 	   -0.7607050000
H   	    1.1628980000 	    1.5026830000 	   -0.0104220000
H   	    0.1102660000 	   -2.0889460000 	   -0.0044290000
H   	   -2.2073700000 	   -2.5347360000 	    0.0044290000
H   	   -3.9124390000 	   -0.9442100000 	    0.0107120000
H   	   -3.3205870000 	    1.4843090000 	    0.0069110000
