16
tauto -437.905666308
C   	    2.6448760000 	   -0.3233850000 	    0.4640870000
O   	    1.6560710000 	   -0.8395660000 	   -0.4255640000
C   	    0.3784800000 	   -0.4408610000 	   -0.1803250000
C   	   -0.5725890000 	   -1.4026520000 	   -0.0941420000
N   	   -1.9003620000 	   -1.0914890000 	    0.0623490000
C   	   -2.3007140000 	    0.2069610000 	    0.1651470000
C   	   -1.4056320000 	    1.2204820000 	    0.1036290000
C   	    0.0206770000 	    0.9885970000 	   -0.1003160000
O   	    0.8441480000 	    1.8962550000 	   -0.2041600000
H   	    3.5838820000 	   -0.7960200000 	    0.1693900000
H   	    2.4106600000 	   -0.6014670000 	    1.5005000000
H   	    2.7162240000 	    0.7617080000 	    0.3773410000
H   	   -0.3176840000 	   -2.4537590000 	   -0.1701200000
H   	   -2.5795430000 	   -1.8336470000 	    0.1051160000
H   	   -3.3665920000 	    0.3645760000 	    0.2950930000
H   	   -1.7367530000 	    2.2506540000 	    0.1755480000
