18
tauto -551.239802467
C   	   -3.3672250000 	   -0.0997630000 	   -0.3593160000
C   	   -2.0237180000 	   -0.2778300000 	    0.2827570000
O   	   -1.0944190000 	   -0.6572460000 	   -0.6571760000
C   	    0.2142080000 	   -0.4001700000 	   -0.3186330000
C   	    1.0992030000 	   -1.4094060000 	   -0.2016740000
N   	    2.4227270000 	   -1.1446100000 	    0.0447760000
C   	    2.8621110000 	    0.1406670000 	    0.1918020000
C   	    2.0199370000 	    1.1948700000 	    0.0894120000
C   	    0.5986100000 	    1.0132820000 	   -0.1837540000
O   	   -0.2173490000 	    1.9202170000 	   -0.3057880000
O   	   -1.7529050000 	   -0.1306700000 	    1.4416180000
H   	   -4.1398760000 	   -0.0694080000 	    0.4089550000
H   	   -3.5659980000 	   -0.8972940000 	   -1.0792540000
H   	   -3.3518210000 	    0.8508160000 	   -0.9019370000
H   	    0.8122990000 	   -2.4498410000 	   -0.3040430000
H   	    3.0708190000 	   -1.9098620000 	    0.1355740000
H   	    3.9231960000 	    0.2524130000 	    0.3902530000
H   	    2.3909220000 	    2.2071390000 	    0.2042330000
