18
tauto -551.241939879
C   	    3.7094410000 	    0.2433480000 	    0.0003120000
O   	    2.3156520000 	    0.5736000000 	    0.0001520000
C   	    1.4830560000 	   -0.4837970000 	   -0.0001170000
C   	    0.0530040000 	   -0.0496270000 	   -0.0001650000
N   	   -0.1957520000 	    1.3002040000 	   -0.0003450000
C   	   -1.4817840000 	    1.7625100000 	   -0.0000800000
C   	   -2.5389090000 	    0.9202050000 	    0.0000330000
C   	   -0.9508820000 	   -0.9541910000 	   -0.0000850000
C   	   -2.3602930000 	   -0.5344080000 	    0.0000890000
O   	   -3.2901940000 	   -1.3321210000 	    0.0003070000
O   	    1.8493340000 	   -1.6311180000 	   -0.0003130000
H   	    4.2382200000 	    1.1959660000 	    0.0007570000
H   	    3.9585190000 	   -0.3380700000 	   -0.8901960000
H   	    3.9582380000 	   -0.3387710000 	    0.8904390000
H   	    0.5895870000 	    1.9327030000 	    0.0004980000
H   	   -1.5880240000 	    2.8428230000 	   -0.0001250000
H   	   -3.5509910000 	    1.3095540000 	    0.0001040000
H   	   -0.7154200000 	   -2.0127570000 	   -0.0001490000
