18
tauto -551.24066955
C   	   -3.4604620000 	    0.2979950000 	   -0.0002190000
O   	   -2.0571410000 	    0.5559860000 	   -0.0000520000
C   	   -1.2887260000 	   -0.5310170000 	    0.0000760000
C   	    0.1708740000 	   -0.2354570000 	    0.0000710000
C   	    0.9649550000 	   -1.3408230000 	    0.0000270000
N   	    2.3182130000 	   -1.2694290000 	    0.0000400000
C   	    2.9546320000 	   -0.0481060000 	   -0.0001460000
C   	    2.2466480000 	    1.0953860000 	   -0.0001320000
C   	    0.7722140000 	    1.1166540000 	    0.0000720000
O   	    0.1514620000 	    2.1689710000 	    0.0002350000
O   	   -1.7355640000 	   -1.6628420000 	    0.0001670000
H   	   -3.9355970000 	    1.2787290000 	   -0.0008760000
H   	   -3.7469880000 	   -0.2694750000 	    0.8891130000
H   	   -3.7466120000 	   -0.2704800000 	   -0.8890330000
H   	    0.5212380000 	   -2.3315550000 	   -0.0000010000
H   	    2.8603750000 	   -2.1186290000 	   -0.0003320000
H   	    4.0392750000 	   -0.0832820000 	   -0.0002170000
H   	    2.7499560000 	    2.0559810000 	   -0.0002230000
