23
tauto -629.603449062
O   	   -3.9336760000 	   -0.8149790000 	    1.2951730000
C   	   -3.0721270000 	   -0.3485520000 	    0.5594120000
C   	   -3.2473970000 	    0.9103960000 	   -0.1804820000
C   	   -2.2813090000 	    1.3940010000 	   -0.9861990000
N   	   -1.0854000000 	    0.7361470000 	   -1.1430390000
C   	   -1.7684700000 	   -0.9871640000 	    0.3484840000
C   	   -0.8541230000 	   -0.4409960000 	   -0.4781100000
O   	    0.3451300000 	   -1.0255750000 	   -0.7578020000
C   	    1.4918330000 	   -0.4468910000 	   -0.2358680000
C   	    2.6919630000 	   -0.8758040000 	   -0.7943020000
C   	    3.8876390000 	   -0.3595880000 	   -0.3116030000
C   	    3.8865100000 	    0.5813950000 	    0.7161320000
C   	    2.6777970000 	    0.9968550000 	    1.2635170000
C   	    1.4693190000 	    0.4859290000 	    0.7952110000
H   	   -4.1857360000 	    1.4408570000 	   -0.0637110000
H   	   -2.3805790000 	    2.3155180000 	   -1.5504130000
H   	   -0.3850100000 	    1.0723950000 	   -1.7859310000
H   	   -1.5437760000 	   -1.9144450000 	    0.8622430000
H   	    2.6677400000 	   -1.6114200000 	   -1.5926740000
H   	    4.8265360000 	   -0.6954650000 	   -0.7437350000
H   	    4.8230130000 	    0.9849540000 	    1.0902210000
H   	    2.6663700000 	    1.7248150000 	    2.0703820000
H   	    0.5278000000 	    0.7967130000 	    1.2387740000
