20
tauto -532.378166582
N   	    3.2443820000 	   -1.1312860000 	   -0.0811030000
C   	    2.0247350000 	   -0.4675410000 	   -0.0049210000
N   	    0.9390330000 	   -1.3043270000 	    0.0187880000
C   	   -0.3629870000 	   -0.8151630000 	    0.0083580000
C   	   -0.5728760000 	    0.5679200000 	    0.0074410000
C   	   -1.8830310000 	    1.0571040000 	    0.0069210000
C   	   -2.9621430000 	    0.1928310000 	   -0.0003150000
C   	   -2.7383840000 	   -1.1896010000 	   -0.0063130000
C   	   -1.4517410000 	   -1.6972160000 	    0.0006480000
C   	    1.8836990000 	    0.8858730000 	    0.0069920000
C   	    0.5778630000 	    1.5147240000 	   -0.0031260000
O   	    0.4059900000 	    2.7295370000 	   -0.0029650000
H   	    3.3419070000 	   -1.8968480000 	    0.5749340000
H   	    4.0356880000 	   -0.5046330000 	   -0.0217470000
H   	    1.0872160000 	   -2.2743100000 	   -0.2180530000
H   	   -2.0078720000 	    2.1364270000 	    0.0080930000
H   	   -3.9771860000 	    0.5798210000 	   -0.0029280000
H   	   -3.5810140000 	   -1.8764260000 	   -0.0138690000
H   	   -1.2795700000 	   -2.7718340000 	    0.0030490000
H   	    2.7582040000 	    1.5271970000 	    0.0363390000
