23
tauto -629.593956367
O   	    2.4111500000 	   -2.1586540000 	   -0.0000390000
C   	    2.3137950000 	   -0.9388220000 	   -0.0000550000
C   	    1.0043460000 	   -0.2496040000 	   -0.0011690000
O   	   -0.0629770000 	   -1.0987820000 	   -0.0024040000
C   	   -1.3268310000 	   -0.5424190000 	   -0.0010300000
C   	   -1.9626160000 	   -0.2885330000 	   -1.2113870000
C   	   -3.2566970000 	    0.2234740000 	   -1.2043330000
C   	   -3.9036030000 	    0.4809970000 	    0.0017620000
C   	   -3.2548820000 	    0.2214610000 	    1.2064580000
C   	   -1.9608280000 	   -0.2905990000 	    1.2107000000
C   	    0.9093360000 	    1.1009500000 	   -0.0010640000
N   	    2.0440560000 	    1.8837030000 	   -0.0001300000
C   	    3.2838320000 	    1.3225400000 	    0.0011820000
C   	    3.4472730000 	   -0.0215390000 	    0.0010760000
H   	   -1.4413080000 	   -0.5071970000 	   -2.1390540000
H   	   -3.7629400000 	    0.4159870000 	   -2.1466990000
H   	   -4.9152390000 	    0.8778080000 	    0.0028670000
H   	   -3.7597350000 	    0.4123710000 	    2.1498930000
H   	   -1.4381540000 	   -0.5108820000 	    2.1372120000
H   	   -0.0366760000 	    1.6295090000 	   -0.0018180000
H   	    1.9447190000 	    2.8852990000 	    0.0011330000
H   	    4.1162080000 	    2.0192590000 	    0.0020870000
H   	    4.4406020000 	   -0.4560340000 	    0.0019880000
