18
tauto -477.030983608
O   	   -1.6419420000 	    2.1665490000 	   -0.0001210000
C   	   -1.3653520000 	    0.9727610000 	   -0.0000100000
C   	    0.0407520000 	    0.4909260000 	   -0.0000070000
C   	    1.0941630000 	    1.4147740000 	    0.0000040000
C   	    2.4081840000 	    0.9915060000 	    0.0000770000
C   	    2.6919070000 	   -0.3822570000 	    0.0000550000
C   	    1.6729200000 	   -1.3140430000 	   -0.0000710000
C   	    0.3378980000 	   -0.8790480000 	   -0.0000520000
N   	   -0.7027670000 	   -1.7923450000 	   -0.0001200000
C   	   -2.0078320000 	   -1.3894000000 	    0.0000800000
C   	   -2.3685170000 	   -0.0872960000 	    0.0001230000
H   	    0.8283730000 	    2.4681970000 	    0.0000480000
H   	    3.2194620000 	    1.7137220000 	    0.0001630000
H   	    3.7244210000 	   -0.7224020000 	    0.0000870000
H   	    1.8947960000 	   -2.3794930000 	   -0.0001490000
H   	   -0.4848460000 	   -2.7761640000 	    0.0000340000
H   	   -2.7374580000 	   -2.1937530000 	    0.0001940000
H   	   -3.4145840000 	    0.1963830000 	    0.0002370000
