21
tauto -516.343333298
C   	   -3.3715810000 	   -1.0832200000 	    0.0001470000
C   	   -2.0264880000 	   -0.4170590000 	   -0.0000490000
N   	   -0.9505760000 	   -1.2674150000 	   -0.0001060000
C   	    0.3577220000 	   -0.8136830000 	   -0.0000560000
C   	    0.6005950000 	    0.5656660000 	   -0.0000110000
C   	    1.9236550000 	    1.0250830000 	    0.0000760000
C   	    2.9813740000 	    0.1372300000 	    0.0000960000
C   	    2.7253500000 	   -1.2415250000 	    0.0000100000
C   	    1.4295320000 	   -1.7201230000 	   -0.0000660000
C   	   -1.8501100000 	    0.9265850000 	   -0.0000770000
C   	   -0.5255490000 	    1.5344710000 	   -0.0000410000
O   	   -0.3378850000 	    2.7461700000 	   -0.0000290000
H   	   -3.4938100000 	   -1.7157520000 	    0.8871690000
H   	   -3.4936760000 	   -1.7167440000 	   -0.8861750000
H   	   -4.1672470000 	   -0.3363050000 	   -0.0002960000
H   	   -1.1132850000 	   -2.2630650000 	   -0.0000050000
H   	    2.0739840000 	    2.1011550000 	    0.0001200000
H   	    4.0052750000 	    0.5000100000 	    0.0001770000
H   	    3.5527810000 	   -1.9466220000 	    0.0000060000
H   	    1.2341530000 	   -2.7908190000 	   -0.0001450000
H   	   -2.7080620000 	    1.5901350000 	   -0.0000500000
