28
tauto -708.029946473
O   	   -1.9154250000 	    2.8131040000 	   -0.3571410000
C   	   -1.3965830000 	    1.7107960000 	   -0.2184920000
C   	   -2.2058980000 	    0.4759630000 	   -0.0598160000
C   	   -3.6047190000 	    0.5480540000 	   -0.0605210000
C   	   -4.3715710000 	   -0.5888820000 	    0.1001750000
C   	   -3.7403060000 	   -1.8303560000 	    0.2662970000
C   	   -2.3626320000 	   -1.9284550000 	    0.2668530000
C   	   -1.5871960000 	   -0.7699930000 	    0.1005750000
N   	   -0.2042820000 	   -0.8440510000 	    0.0935990000
C   	    0.5903910000 	    0.2666550000 	   -0.0396990000
C   	    2.0540900000 	    0.0198100000 	   -0.0133870000
C   	    2.6023340000 	   -1.0930880000 	   -0.6582520000
C   	    3.9744310000 	   -1.3182500000 	   -0.6307420000
C   	    4.8129340000 	   -0.4351590000 	    0.0424240000
C   	    4.2739910000 	    0.6763850000 	    0.6847850000
C   	    2.9030580000 	    0.9026750000 	    0.6589710000
C   	    0.0447770000 	    1.4996090000 	   -0.2014650000
H   	   -4.0500340000 	    1.5306530000 	   -0.1892900000
H   	   -5.4560260000 	   -0.5263750000 	    0.1002220000
H   	   -4.3376690000 	   -2.7293920000 	    0.3951950000
H   	   -1.8749920000 	   -2.8931220000 	    0.3929940000
H   	    0.2330040000 	   -1.7211360000 	    0.3340910000
H   	    1.9569700000 	   -1.7685740000 	   -1.2162850000
H   	    4.3896870000 	   -2.1812840000 	   -1.1443640000
H   	    5.8850530000 	   -0.6114900000 	    0.0653170000
H   	    4.9232840000 	    1.3668680000 	    1.2163710000
H   	    2.4790360000 	    1.7595650000 	    1.1758190000
H   	    0.6824580000 	    2.3632230000 	   -0.3543690000
