22
tauto -591.519684772
C   	   -3.6339310000 	   -0.4780420000 	    0.6212820000
O   	   -2.9712920000 	    0.2980740000 	   -0.3727650000
C   	   -1.6232440000 	    0.4209380000 	   -0.1984240000
C   	   -1.0995020000 	    1.6672010000 	   -0.1152140000
N   	    0.2452860000 	    1.9020650000 	   -0.0248920000
C   	    1.1577330000 	    0.8700680000 	    0.0123400000
C   	    2.5360030000 	    1.1292170000 	    0.1180070000
C   	    3.4253150000 	    0.0762680000 	    0.1518520000
C   	    2.9712720000 	   -1.2514290000 	    0.0801850000
C   	    1.6200650000 	   -1.5027800000 	   -0.0249470000
C   	    0.6906450000 	   -0.4508350000 	   -0.0571640000
C   	   -0.7520040000 	   -0.7590940000 	   -0.1846950000
O   	   -1.1709730000 	   -1.9100180000 	   -0.2705350000
H   	   -4.6957930000 	   -0.4479830000 	    0.3685780000
H   	   -3.4863090000 	   -0.0354100000 	    1.6159470000
H   	   -3.2732670000 	   -1.5089250000 	    0.6146350000
H   	   -1.7451510000 	    2.5386920000 	   -0.1388780000
H   	    0.5788030000 	    2.8521340000 	    0.0132970000
H   	    2.8894540000 	    2.1569920000 	    0.1724210000
H   	    4.4898130000 	    0.2800840000 	    0.2351380000
H   	    3.6840280000 	   -2.0705030000 	    0.1070660000
H   	    1.2254190000 	   -2.5130510000 	   -0.0868870000
