24
tauto -704.861704662
C   	    4.6726450000 	   -0.0274560000 	    0.0020320000
C   	    3.2426550000 	   -0.4820550000 	   -0.0009450000
O   	    2.4185130000 	    0.5982820000 	    0.0007320000
C   	    1.0393900000 	    0.5623050000 	    0.0001170000
N   	    0.4083390000 	   -0.6407150000 	    0.0005790000
C   	   -0.9782820000 	   -0.7059690000 	    0.0003830000
C   	   -1.7283760000 	    0.4757400000 	    0.0000130000
C   	   -3.1266060000 	    0.3942130000 	   -0.0000230000
C   	   -3.7628970000 	   -0.8311900000 	    0.0002810000
C   	   -2.9991510000 	   -2.0075230000 	    0.0006180000
C   	   -1.6189610000 	   -1.9539530000 	    0.0006840000
C   	    0.3931260000 	    1.7510080000 	   -0.0002740000
C   	   -1.0604610000 	    1.8041040000 	   -0.0004290000
O   	   -1.6979540000 	    2.8508150000 	   -0.0008200000
O   	    2.8742880000 	   -1.6320250000 	   -0.0036370000
H   	    4.8647100000 	    0.5978510000 	   -0.8742670000
H   	    5.3258740000 	   -0.8995990000 	   -0.0066180000
H   	    4.8655810000 	    0.5797680000 	    0.8908850000
H   	    0.9741800000 	   -1.4800910000 	   -0.0005220000
H   	   -3.6771360000 	    1.3308520000 	   -0.0003080000
H   	   -4.8476550000 	   -0.8884040000 	    0.0002550000
H   	   -3.4943080000 	   -2.9751490000 	    0.0008730000
H   	   -1.0262240000 	   -2.8660770000 	    0.0010170000
H   	    0.9593380000 	    2.6739290000 	   -0.0003220000
