25
tauto -630.83036715
C   	    4.5761380000 	   -0.8790580000 	   -0.0915350000
O   	    3.1902090000 	   -0.7046870000 	   -0.2745600000
C   	    2.7383320000 	    0.5385410000 	    0.2058670000
C   	    1.2363330000 	    0.5962750000 	    0.0838410000
N   	    0.6133840000 	   -0.6143630000 	    0.1211880000
C   	   -0.7630350000 	   -0.7314500000 	    0.0571490000
C   	   -1.5440600000 	    0.4306880000 	   -0.0022400000
C   	   -2.9388940000 	    0.3115850000 	   -0.0560880000
C   	   -3.5437720000 	   -0.9295050000 	   -0.0529300000
C   	   -2.7505500000 	   -2.0854200000 	    0.0033580000
C   	   -1.3737040000 	   -1.9956160000 	    0.0581590000
C   	    0.5445070000 	    1.7592580000 	    0.0147960000
C   	   -0.9116270000 	    1.7753900000 	   -0.0220920000
O   	   -1.5768770000 	    2.8045600000 	   -0.0723100000
H   	    4.8317570000 	   -1.8651090000 	   -0.4841630000
H   	    4.8475390000 	   -0.8294710000 	    0.9736160000
H   	    5.1480580000 	   -0.1146760000 	   -0.6369540000
H   	    3.1867820000 	    1.3712020000 	   -0.3553290000
H   	    3.0204640000 	    0.6596080000 	    1.2655130000
H   	    1.2007630000 	   -1.4355990000 	    0.0755420000
H   	   -3.5124770000 	    1.2332500000 	   -0.1019740000
H   	   -4.6258140000 	   -1.0155780000 	   -0.0956000000
H   	   -3.2212060000 	   -3.0653450000 	    0.0046930000
H   	   -0.7589960000 	   -2.8922180000 	    0.1037260000
H   	    1.0647760000 	    2.7113700000 	   -0.0121330000
