27
tauto -686.165047606
C   	    5.5222600000 	    0.0099270000 	    0.0360430000
O   	    4.3167900000 	   -0.7094930000 	   -0.0764180000
C   	    3.1994440000 	    0.1254810000 	   -0.0118150000
N   	    2.0547080000 	   -0.7508130000 	   -0.0581100000
C   	    0.7831420000 	   -0.2143810000 	    0.0017870000
N   	   -0.2120780000 	   -1.1611680000 	    0.0290220000
C   	   -1.5581370000 	   -0.8144870000 	    0.0133240000
C   	   -1.9164480000 	    0.5374540000 	    0.0068190000
C   	   -3.2716890000 	    0.8826040000 	    0.0011060000
C   	   -4.2513440000 	   -0.0928900000 	   -0.0058710000
C   	   -3.8795070000 	   -1.4432070000 	   -0.0059220000
C   	   -2.5455970000 	   -1.8087620000 	    0.0061960000
C   	    0.4942230000 	    1.1186940000 	    0.0073730000
C   	   -0.8733870000 	    1.6002010000 	   -0.0030490000
O   	   -1.1730200000 	    2.7901900000 	   -0.0039620000
H   	    6.3338560000 	   -0.7175400000 	   -0.0211770000
H   	    5.5842080000 	    0.5455910000 	    0.9953780000
H   	    5.6332140000 	    0.7381900000 	   -0.7808210000
H   	    3.1549820000 	    0.8151200000 	   -0.8695700000
H   	    3.2254920000 	    0.7328730000 	    0.9145450000
H   	    2.1998330000 	   -1.5781950000 	    0.5085460000
H   	    0.0362730000 	   -2.1119810000 	   -0.2012970000
H   	   -3.5115250000 	    1.9423430000 	   -0.0019600000
H   	   -5.3023880000 	    0.1814810000 	   -0.0127210000
H   	   -4.6433140000 	   -2.2166210000 	   -0.0130230000
H   	   -2.2587430000 	   -2.8585910000 	    0.0133380000
H   	    1.2817800000 	    1.8618100000 	    0.0394680000
