24
tauto -704.857931626
C   	    4.4428130000 	   -0.8420920000 	   -0.0006120000
O   	    3.0166820000 	   -0.8121860000 	   -0.0003690000
C   	    2.4806530000 	    0.4079260000 	    0.0001910000
C   	    0.9947780000 	    0.4116850000 	    0.0001620000
C   	    0.4350850000 	    1.6548450000 	    0.0000180000
N   	   -0.8952210000 	    1.8784600000 	   -0.0001170000
C   	   -1.8120750000 	    0.8333910000 	   -0.0000850000
C   	   -3.1890630000 	    1.0905730000 	   -0.0002430000
C   	   -4.0756170000 	    0.0302030000 	   -0.0002200000
C   	   -3.6077910000 	   -1.2905920000 	   -0.0000460000
C   	   -2.2477570000 	   -1.5349720000 	    0.0001070000
C   	   -1.3283170000 	   -0.4789740000 	    0.0000880000
C   	    0.1346380000 	   -0.7829570000 	    0.0002700000
O   	    0.5271280000 	   -1.9390530000 	    0.0004860000
O   	    3.1470690000 	    1.4265010000 	    0.0005900000
H   	    4.7096510000 	   -1.8988920000 	   -0.0020670000
H   	    4.8391210000 	   -0.3459200000 	    0.8891710000
H   	    4.8389120000 	   -0.3434790000 	   -0.8891120000
H   	    1.0780330000 	    2.5301330000 	    0.0000070000
H   	   -1.2380140000 	    2.8270240000 	   -0.0000880000
H   	   -3.5504100000 	    2.1169980000 	   -0.0003990000
H   	   -5.1443660000 	    0.2277330000 	   -0.0003450000
H   	   -4.3138840000 	   -2.1159310000 	   -0.0000270000
H   	   -1.8436030000 	   -2.5431990000 	    0.0002500000
