28
tauto -708.027322657
O   	   -0.0347280000 	   -1.9741840000 	    0.2431040000
C   	   -0.3971190000 	   -0.8119620000 	    0.0937270000
C   	    0.5304580000 	    0.3192180000 	   -0.0749700000
C   	    2.0009070000 	    0.1258750000 	   -0.0160850000
C   	    2.6080430000 	   -1.0016700000 	   -0.5820010000
C   	    3.9903880000 	   -1.1447090000 	   -0.5584810000
C   	    4.7933090000 	   -0.1722690000 	    0.0314430000
C   	    4.2005940000 	    0.9452290000 	    0.6094920000
C   	    2.8172100000 	    1.0870000000 	    0.5909860000
C   	    0.0193190000 	    1.5598960000 	   -0.2904450000
N   	   -1.3144360000 	    1.8393510000 	   -0.3234490000
C   	   -2.2677920000 	    0.8567090000 	   -0.1378150000
C   	   -1.8391040000 	   -0.4591840000 	    0.0735260000
C   	   -2.8003720000 	   -1.4626910000 	    0.2620580000
C   	   -4.1478390000 	   -1.1654620000 	    0.2407830000
C   	   -4.5622970000 	    0.1579080000 	    0.0249740000
C   	   -3.6373680000 	    1.1648500000 	   -0.1635330000
H   	    1.9871310000 	   -1.7705130000 	   -1.0274550000
H   	    4.4438340000 	   -2.0261280000 	   -1.0051990000
H   	    5.8737900000 	   -0.2908750000 	    0.0503300000
H   	    4.8139920000 	    1.7036570000 	    1.0899140000
H   	    2.3616750000 	    1.9469890000 	    1.0784640000
H   	    0.6685920000 	    2.4136300000 	   -0.4634030000
H   	   -1.6166160000 	    2.7824980000 	   -0.5105420000
H   	   -2.4360010000 	   -2.4733570000 	    0.4223870000
H   	   -4.8864310000 	   -1.9481250000 	    0.3879660000
H   	   -5.6225740000 	    0.3967190000 	    0.0052390000
H   	   -3.9585300000 	    2.1910950000 	   -0.3303430000
