19
tauto -569.250760127
N   	   -4.3052230000 	   -0.1778800000 	   -0.0001250000
C   	   -3.1596970000 	   -0.0058030000 	   -0.0001910000
C   	   -1.7507920000 	    0.2485010000 	   -0.0000410000
C   	   -1.3053560000 	    1.5359270000 	    0.0001130000
N   	    0.0098560000 	    1.8477160000 	   -0.0001040000
C   	    0.9994820000 	    0.8699880000 	   -0.0000120000
C   	    2.3535920000 	    1.2299570000 	   -0.0000560000
C   	    3.3174560000 	    0.2397690000 	   -0.0000400000
C   	    2.9538240000 	   -1.1140380000 	   -0.0000580000
C   	    1.6174920000 	   -1.4628430000 	   -0.0000520000
C   	    0.6214310000 	   -0.4781460000 	    0.0000010000
C   	   -0.8076660000 	   -0.8813830000 	    0.0000760000
O   	   -1.1604610000 	   -2.0488250000 	    0.0002400000
H   	   -1.9936330000 	    2.3753930000 	    0.0003090000
H   	    0.2872690000 	    2.8174270000 	    0.0012400000
H   	    2.6366720000 	    2.2804920000 	   -0.0001170000
H   	    4.3678350000 	    0.5184150000 	   -0.0000450000
H   	    3.7214860000 	   -1.8820480000 	   -0.0000950000
H   	    1.2930270000 	   -2.4995000000 	   -0.0000410000
