13
tauto -489.917288433
O   	    2.5283350000 	   -0.8644300000 	   -0.0003910000
C   	    1.2380980000 	   -0.4945870000 	   -0.0000200000
N   	    0.9679870000 	    0.8573930000 	    0.0002760000
C   	   -0.3230230000 	    1.3880180000 	    0.0000200000
N   	   -1.3015040000 	    0.4274200000 	    0.0004380000
O   	   -0.5189740000 	    2.5839490000 	   -0.0002880000
C   	    0.2473960000 	   -1.4101890000 	   -0.0000740000
C   	   -1.1362320000 	   -0.9761860000 	   -0.0000050000
O   	   -2.1161120000 	   -1.6928190000 	   -0.0001400000
H   	    3.1204310000 	   -0.1020560000 	    0.0031660000
H   	    1.6975480000 	    1.5559790000 	   -0.0014770000
H   	   -2.2554850000 	    0.7644810000 	    0.0002900000
H   	    0.4686890000 	   -2.4680270000 	    0.0000420000
