13
tauto -398.554473094
O   	    2.6474050000 	   -0.0000040000 	   -0.0892260000
N   	    1.2722670000 	    0.0000060000 	    0.0180000000
C   	    0.6085720000 	    1.1945160000 	   -0.0169990000
C   	   -0.7416450000 	    1.2290450000 	   -0.0117920000
C   	    0.6086050000 	   -1.1944960000 	   -0.0169260000
C   	   -0.7416200000 	   -1.2290370000 	   -0.0118330000
C   	   -1.5452980000 	   -0.0000130000 	    0.0072940000
O   	   -2.7710900000 	   -0.0000150000 	    0.0269170000
H   	    2.9759280000 	   -0.0000080000 	    0.8242150000
H   	    1.2502230000 	    2.0686290000 	   -0.0457590000
H   	   -1.2622200000 	    2.1801580000 	   -0.0292930000
H   	    1.2502260000 	   -2.0686270000 	   -0.0457310000
H   	   -1.2622290000 	   -2.1801290000 	   -0.0294250000
