24
tauto -630.646621693
O   	    0.0000000000 	    2.5589770000 	   -0.0000550000
C   	    0.0000000000 	    1.3350730000 	   -0.0000800000
C   	   -1.2501510000 	    0.5448260000 	   -0.0000470000
C   	   -2.4892480000 	    1.1992840000 	    0.0000260000
C   	   -3.6701390000 	    0.4844120000 	    0.0000960000
C   	   -3.6224620000 	   -0.9171350000 	    0.0000890000
C   	   -2.4145300000 	   -1.5864540000 	    0.0000080000
C   	   -1.2132730000 	   -0.8579900000 	   -0.0000580000
N   	    0.0000000000 	   -1.5144950000 	   -0.0001800000
C   	    1.2132730000 	   -0.8579900000 	   -0.0000590000
C   	    1.2501510000 	    0.5448260000 	   -0.0000440000
C   	    2.4892480000 	    1.1992840000 	    0.0000290000
C   	    3.6701390000 	    0.4844120000 	    0.0000990000
C   	    3.6224620000 	   -0.9171350000 	    0.0000870000
C   	    2.4145310000 	   -1.5864540000 	    0.0000030000
H   	   -2.4759890000 	    2.2857230000 	    0.0000280000
H   	   -4.6270280000 	    0.9978640000 	    0.0001530000
H   	   -4.5466170000 	   -1.4898070000 	    0.0001450000
H   	   -2.3845160000 	   -2.6742610000 	   -0.0000120000
H   	    0.0000000000 	   -2.5231570000 	    0.0001850000
H   	    2.4759890000 	    2.2857230000 	    0.0000350000
H   	    4.6270280000 	    0.9978640000 	    0.0001590000
H   	    4.5466170000 	   -1.4898070000 	    0.0001400000
H   	    2.3845160000 	   -2.6742610000 	   -0.0000220000
