24
tauto -704.854431372
C   	    4.4227130000 	   -0.4781970000 	   -0.1702620000
C   	    3.0837330000 	   -0.0672760000 	    0.3691900000
O   	    2.3408080000 	    0.5312380000 	   -0.6163830000
C   	    0.9865600000 	    0.6153200000 	   -0.3629920000
C   	    0.3946610000 	    1.8180600000 	   -0.2228910000
N   	   -0.9564290000 	    1.9370860000 	   -0.0546160000
C   	   -1.7823790000 	    0.8304590000 	    0.0023570000
C   	   -3.1672550000 	    0.9794940000 	    0.1883100000
C   	   -3.9713370000 	   -0.1403780000 	    0.2393850000
C   	   -3.4236700000 	   -1.4263980000 	    0.1064610000
C   	   -2.0646590000 	   -1.5708850000 	   -0.0766680000
C   	   -1.2232870000 	   -0.4495210000 	   -0.1303450000
C   	    0.2293120000 	   -0.6350110000 	   -0.3331890000
O   	    0.7594840000 	   -1.7298340000 	   -0.4715650000
O   	    2.6833660000 	   -0.2189920000 	    1.4899870000
H   	    4.2802440000 	   -1.3705850000 	   -0.7878490000
H   	    5.0942780000 	   -0.7109450000 	    0.6562390000
H   	    4.8447600000 	    0.3057120000 	   -0.8037810000
H   	    0.9663380000 	    2.7395520000 	   -0.2466330000
H   	   -1.3615480000 	    2.8537290000 	    0.0495550000
H   	   -3.5949550000 	    1.9746370000 	    0.2919980000
H   	   -5.0417380000 	   -0.0202780000 	    0.3850370000
H   	   -4.0695580000 	   -2.2985000000 	    0.1490340000
H   	   -1.5984310000 	   -2.5462290000 	   -0.1837440000
