19
tauto -569.242794285
N   	    4.2784030000 	   -0.9608600000 	    0.0000420000
C   	    3.1878420000 	   -0.5743470000 	    0.0000020000
C   	    1.8195600000 	   -0.1171050000 	   -0.0000020000
N   	    0.8713730000 	   -1.1064160000 	   -0.0000330000
C   	   -0.4800390000 	   -0.8041930000 	   -0.0000240000
C   	   -0.8831710000 	    0.5384140000 	   -0.0000140000
C   	   -2.2525630000 	    0.8382440000 	    0.0000220000
C   	   -3.1958090000 	   -0.1685760000 	    0.0000380000
C   	   -2.7783820000 	   -1.5083440000 	    0.0000090000
C   	   -1.4363180000 	   -1.8315920000 	   -0.0000170000
C   	    1.5089470000 	    1.2004380000 	    0.0000280000
C   	    0.1109170000 	    1.6382350000 	   -0.0000170000
O   	   -0.2111030000 	    2.8177550000 	   -0.0000340000
H   	    1.1639350000 	   -2.0718530000 	   -0.0001480000
H   	   -2.5305530000 	    1.8884210000 	    0.0000430000
H   	   -4.2554280000 	    0.0691700000 	    0.0000730000
H   	   -3.5173000000 	   -2.3052300000 	    0.0000330000
H   	   -1.1151240000 	   -2.8710100000 	   -0.0000150000
H   	    2.2889600000 	    1.9523520000 	    0.0000830000
