25
tauto -705.786846694
O   	    0.0000170000 	   -2.6725860000 	   -0.0216570000
N   	    0.0000050000 	   -1.2954220000 	    0.0488950000
C   	   -1.2228730000 	   -0.6493080000 	    0.0038700000
C   	   -1.2496920000 	    0.7557460000 	    0.0124290000
C   	   -2.4839610000 	    1.4162150000 	   -0.0066980000
C   	   -3.6691080000 	    0.7081550000 	   -0.0366970000
C   	   -3.6268630000 	   -0.6916430000 	   -0.0528790000
C   	   -2.4244290000 	   -1.3740080000 	   -0.0325990000
C   	    1.2228770000 	   -0.6492930000 	    0.0038920000
C   	    2.4244340000 	   -1.3740050000 	   -0.0325320000
C   	    3.6268580000 	   -0.6916410000 	   -0.0528430000
C   	    3.6690950000 	    0.7081730000 	   -0.0367380000
C   	    2.4839580000 	    1.4162290000 	   -0.0067630000
C   	    1.2496830000 	    0.7557470000 	    0.0124050000
C   	   -0.0000050000 	    1.5448520000 	    0.0341530000
O   	   -0.0000070000 	    2.7682880000 	    0.0591760000
H   	    0.0000520000 	   -2.9754920000 	    0.9020220000
H   	   -2.4628720000 	    2.5024130000 	    0.0017090000
H   	   -4.6228140000 	    1.2272460000 	   -0.0521130000
H   	   -4.5534300000 	   -1.2595170000 	   -0.0858490000
H   	   -2.3959790000 	   -2.4569080000 	   -0.0629840000
H   	    2.3959720000 	   -2.4569080000 	   -0.0628440000
H   	    4.5534380000 	   -1.2594940000 	   -0.0857630000
H   	    4.6228080000 	    1.2272500000 	   -0.0522080000
H   	    2.4628610000 	    2.5024250000 	    0.0016140000
