20
tauto -681.4834347
O   	   -3.0666920000 	   -1.6301100000 	    0.0002410000
N   	   -2.8716860000 	   -0.4239630000 	    0.0000250000
C   	   -1.4607480000 	    0.0134040000 	   -0.0000430000
N   	   -0.5794710000 	   -1.0161350000 	   -0.0001230000
C   	    0.7828150000 	   -0.7668910000 	   -0.0000480000
C   	    1.2355090000 	    0.5602910000 	   -0.0000210000
C   	    2.6153770000 	    0.8079830000 	    0.0000150000
C   	    3.5189840000 	   -0.2345220000 	    0.0000230000
C   	    3.0510750000 	   -1.5577900000 	   -0.0000040000
C   	    1.6980030000 	   -1.8305770000 	   -0.0000470000
C   	   -1.1335240000 	    1.3174440000 	   -0.0000300000
C   	    0.2843570000 	    1.6992620000 	   -0.0000360000
O   	    0.6505260000 	    2.8648090000 	    0.0001280000
O   	   -3.7283970000 	    0.4314980000 	   -0.0001640000
H   	   -0.9544710000 	   -1.9553150000 	    0.0002130000
H   	    2.9342280000 	    1.8464790000 	    0.0000340000
H   	    4.5868540000 	   -0.0371650000 	    0.0000450000
H   	    3.7597920000 	   -2.3816730000 	   -0.0000010000
H   	    1.3352800000 	   -2.8558800000 	   -0.0000830000
H   	   -1.8981630000 	    2.0830440000 	   -0.0000280000
