20
tauto -681.481018425
O   	    3.2648650000 	    1.1269400000 	    0.2746820000
N   	    2.8501770000 	    0.0162720000 	    0.0197030000
C   	    1.4097310000 	   -0.1928470000 	   -0.0009990000
C   	    0.9989000000 	   -1.4900840000 	    0.0163940000
N   	   -0.3002260000 	   -1.8369680000 	    0.0270540000
C   	   -1.3166490000 	   -0.8840680000 	    0.0168500000
C   	   -2.6599030000 	   -1.2777910000 	    0.0393450000
C   	   -3.6476290000 	   -0.3108030000 	    0.0266820000
C   	   -3.3140570000 	    1.0493940000 	   -0.0094300000
C   	   -1.9857440000 	    1.4291780000 	   -0.0325100000
C   	   -0.9664690000 	    0.4694920000 	   -0.0184800000
C   	    0.4552420000 	    0.9260820000 	   -0.0444560000
O   	    0.7372170000 	    2.1075520000 	   -0.1150200000
O   	    3.5628620000 	   -0.9578020000 	   -0.2080660000
H   	    1.7307740000 	   -2.2900300000 	    0.0220270000
H   	   -0.5487130000 	   -2.8146340000 	    0.0484600000
H   	   -2.9164060000 	   -2.3347060000 	    0.0670080000
H   	   -4.6910660000 	   -0.6136410000 	    0.0448850000
H   	   -4.0982930000 	    1.8004310000 	   -0.0197310000
H   	   -1.6860350000 	    2.4726120000 	   -0.0630870000
