30
tauto -817.476832224
O   	   -0.0000700000 	    4.0199760000 	    0.0001510000
C   	   -0.0000610000 	    2.7942230000 	    0.0000440000
C   	   -1.2287570000 	    1.9946540000 	   -0.0092050000
C   	   -1.2019750000 	    0.6405120000 	   -0.0133020000
C   	   -2.4197610000 	   -0.2066000000 	   -0.0534030000
C   	   -2.4760720000 	   -1.3674100000 	   -0.8262870000
C   	   -3.6463950000 	   -2.1193180000 	   -0.8233760000
N   	   -4.7327130000 	   -1.8001700000 	   -0.1202860000
C   	   -4.6712390000 	   -0.6866550000 	    0.6125130000
C   	   -3.5529960000 	    0.1357630000 	    0.6832940000
N   	    0.0000380000 	   -0.0282720000 	    0.0001090000
C   	    1.2020170000 	    0.6406190000 	    0.0132620000
C   	    2.4197990000 	   -0.2064840000 	    0.0533910000
C   	    3.5526810000 	    0.1353880000 	   -0.6840890000
C   	    4.6709600000 	   -0.6869700000 	   -0.6132430000
N   	    4.7327240000 	   -1.8000240000 	    0.1202590000
C   	    3.6467310000 	   -2.1186890000 	    0.8240610000
C   	    2.4763970000 	   -1.3667800000 	    0.8269890000
C   	    1.2287160000 	    1.9947350000 	    0.0091480000
H   	   -2.1750670000 	    2.5238970000 	   -0.0470920000
H   	   -1.6419890000 	   -1.6709070000 	   -1.4547760000
H   	   -3.7141950000 	   -3.0245290000 	   -1.4244990000
H   	   -5.5656660000 	   -0.4404070000 	    1.1820440000
H   	   -3.5568610000 	    1.0191260000 	    1.3151030000
H   	    0.0001200000 	   -1.0375100000 	    0.0000220000
H   	    3.5562390000 	    1.0183590000 	   -1.3164550000
H   	    5.5651360000 	   -0.4411340000 	   -1.1833460000
H   	    3.7147490000 	   -3.0235580000 	    1.4256760000
H   	    1.6424840000 	   -1.6699020000 	    1.4558850000
H   	    2.1749800000 	    2.5240790000 	    0.0468590000
