17
tauto -493.055030909
O   	   -1.6492020000 	    2.1610970000 	    0.0001350000
C   	   -1.3531240000 	    0.9793130000 	    0.0000120000
C   	    0.0686670000 	    0.5019990000 	   -0.0000970000
N   	    1.0386700000 	    1.4286430000 	   -0.0001130000
C   	    2.2964770000 	    1.0287490000 	    0.0000060000
C   	    2.6777130000 	   -0.3220290000 	    0.0000490000
C   	    1.6958840000 	   -1.2868090000 	    0.0001180000
C   	    0.3556500000 	   -0.8733600000 	   -0.0000160000
N   	   -0.6744510000 	   -1.7942720000 	   -0.0000860000
C   	   -1.9840520000 	   -1.3968970000 	   -0.0000210000
C   	   -2.3455230000 	   -0.0975520000 	   -0.0000110000
H   	    3.0537790000 	    1.8107920000 	   -0.0003190000
H   	    3.7287840000 	   -0.5953040000 	    0.0000990000
H   	    1.9434670000 	   -2.3466880000 	    0.0002500000
H   	   -0.4498830000 	   -2.7766450000 	    0.0000670000
H   	   -2.7096390000 	   -2.2046920000 	   -0.0000220000
H   	   -3.3925820000 	    0.1826870000 	    0.0000060000
