11
tauto -339.427685556
O   	    2.3084300000 	    0.0031790000 	    0.0003460000
C   	    1.0852880000 	    0.0394580000 	   -0.0007480000
C   	    0.2678820000 	   -1.1940470000 	   -0.0000360000
N   	   -1.0243670000 	   -1.2495970000 	    0.0000900000
N   	   -1.6786340000 	   -0.0796750000 	   -0.0001220000
C   	   -1.0732110000 	    1.1377020000 	    0.0001300000
C   	    0.2757020000 	    1.2483430000 	   -0.0000300000
H   	    0.7884870000 	   -2.1482490000 	    0.0004140000
H   	   -2.6823710000 	   -0.1677770000 	    0.0006520000
H   	   -1.7474030000 	    1.9890650000 	    0.0002810000
H   	    0.7608990000 	    2.2176980000 	    0.0002100000
