35
tauto -861.825034258
C   	   -2.1670410000 	    3.7328520000 	   -0.3706320000
O   	   -1.3612920000 	    2.6020790000 	   -0.5880870000
C   	   -0.9693520000 	    1.9983610000 	    0.6361590000
C   	    0.0320300000 	    0.9185430000 	    0.3627020000
C   	   -0.3132440000 	   -0.3761590000 	    0.1033370000
C   	   -1.7063090000 	   -0.9006040000 	    0.0635900000
C   	   -2.7078410000 	   -0.2354570000 	   -0.6501720000
C   	   -3.9933730000 	   -0.7642380000 	   -0.7013880000
C   	   -4.2934530000 	   -1.9546010000 	   -0.0452360000
C   	   -3.3020150000 	   -2.6181530000 	    0.6714520000
C   	   -2.0147600000 	   -2.0954560000 	    0.7237820000
N   	    0.6447780000 	   -1.3338220000 	   -0.1222070000
C   	    1.9986220000 	   -1.0564940000 	   -0.1516210000
C   	    2.9330040000 	   -2.0680550000 	   -0.4257850000
C   	    4.2790360000 	   -1.7608870000 	   -0.4428810000
C   	    4.7209800000 	   -0.4534900000 	   -0.1887110000
C   	    3.7975120000 	    0.5372360000 	    0.0779320000
C   	    2.4259800000 	    0.2509720000 	    0.0981380000
C   	    1.4430850000 	    1.3233320000 	    0.3731900000
O   	    1.8004820000 	    2.4722620000 	    0.6152830000
H   	   -2.4150260000 	    4.1498120000 	   -1.3497760000
H   	   -1.6365580000 	    4.4949310000 	    0.2196770000
H   	   -3.0997360000 	    3.4721220000 	    0.1561770000
H   	   -1.8553780000 	    1.6040560000 	    1.1579300000
H   	   -0.4906290000 	    2.7517830000 	    1.2758280000
H   	   -2.4671670000 	    0.6963630000 	   -1.1559930000
H   	   -4.7646940000 	   -0.2429850000 	   -1.2623990000
H   	   -5.2992900000 	   -2.3641540000 	   -0.0900560000
H   	   -3.5316210000 	   -3.5415450000 	    1.1966750000
H   	   -1.2489580000 	   -2.6047180000 	    1.3057730000
H   	    0.3351760000 	   -2.2486970000 	   -0.4148650000
H   	    2.5916420000 	   -3.0827970000 	   -0.6206820000
H   	    5.0016730000 	   -2.5445650000 	   -0.6558530000
H   	    5.7832400000 	   -0.2272150000 	   -0.2045730000
H   	    4.0931950000 	    1.5634290000 	    0.2768770000
