48
tauto -1351.74855148
C   	    5.2352860000 	   -2.4537360000 	   -0.5214350000
C   	    3.9069650000 	   -3.1487490000 	   -0.2854040000
O   	    2.7990030000 	   -2.2500090000 	   -0.4714620000
C   	    2.4936500000 	   -1.4706120000 	    0.5757420000
C   	    1.2200140000 	   -0.7195350000 	    0.3417030000
C   	    1.1525650000 	    0.6256730000 	    0.1516440000
C   	    2.3041790000 	    1.5566210000 	   -0.0416800000
N   	    2.0434770000 	    2.8394250000 	    0.2316900000
C   	    3.0216870000 	    3.7281620000 	    0.0757960000
C   	    4.2976290000 	    3.3913600000 	   -0.3631520000
C   	    4.5508600000 	    2.0631520000 	   -0.6820680000
C   	    3.5375250000 	    1.1259980000 	   -0.5294050000
N   	   -0.0615800000 	    1.2395230000 	    0.1022450000
C   	   -1.2542770000 	    0.5841610000 	    0.2017610000
C   	   -2.4299810000 	    1.5089190000 	    0.1162860000
N   	   -2.1727410000 	    2.6644030000 	   -0.5112870000
C   	   -3.1524600000 	    3.5560100000 	   -0.6245270000
C   	   -4.4316420000 	    3.3535180000 	   -0.1164340000
C   	   -4.6826760000 	    2.1698460000 	    0.5636500000
C   	   -3.6680140000 	    1.2275970000 	    0.6938150000
C   	   -1.2570430000 	   -0.7733820000 	    0.3299340000
C   	   -2.4743900000 	   -1.6476490000 	    0.3557690000
O   	   -2.5576680000 	   -2.3532860000 	   -0.7729130000
C   	   -3.6028670000 	   -3.3405660000 	   -0.8286370000
C   	   -4.9211090000 	   -2.7151220000 	   -1.2438330000
O   	   -3.2629580000 	   -1.7369100000 	    1.2715830000
C   	    0.0007230000 	   -1.5220650000 	    0.4538290000
O   	    0.0253090000 	   -2.7325570000 	    0.6621000000
O   	    3.1533230000 	   -1.3953640000 	    1.5844020000
H   	    6.0539070000 	   -3.1772650000 	   -0.4455040000
H   	    5.3955820000 	   -1.6733520000 	    0.2280540000
H   	    5.2667980000 	   -2.0086090000 	   -1.5220530000
H   	    3.8522980000 	   -3.5666650000 	    0.7228880000
H   	    3.7347360000 	   -3.9430200000 	   -1.0149680000
H   	    2.7697290000 	    4.7605890000 	    0.3103460000
H   	    5.0620330000 	    4.1551350000 	   -0.4670620000
H   	    5.5234670000 	    1.7570310000 	   -1.0578360000
H   	    3.6940720000 	    0.0915900000 	   -0.8142420000
H   	   -0.0832050000 	    2.2454710000 	   -0.0434180000
H   	   -2.8993870000 	    4.4791460000 	   -1.1426800000
H   	   -5.1977220000 	    4.1132470000 	   -0.2375650000
H   	   -5.6571000000 	    1.9799690000 	    1.0056410000
H   	   -3.8230180000 	    0.3101870000 	    1.2491900000
H   	   -3.6801750000 	   -3.8256670000 	    0.1473920000
H   	   -3.2502420000 	   -4.0651330000 	   -1.5656900000
H   	   -5.2553290000 	   -1.9969690000 	   -0.4898880000
H   	   -5.6877770000 	   -3.4904360000 	   -1.3462570000
H   	   -4.8185810000 	   -2.2013040000 	   -2.2046830000
