27
tauto -744.167193429
C   	   -4.7428020000 	   -0.5144500000 	    0.9744420000
C   	   -4.1036530000 	   -0.6709420000 	   -0.3925350000
O   	   -2.6701300000 	   -0.6579080000 	   -0.3026100000
C   	   -2.0972220000 	    0.5421700000 	   -0.2231550000
C   	   -0.6141620000 	    0.4898330000 	   -0.1322330000
C   	   -0.0113320000 	    1.7098880000 	   -0.0492170000
N   	    1.3236060000 	    1.8830590000 	    0.0420760000
C   	    2.2011160000 	    0.8048290000 	    0.0587200000
C   	    3.5835840000 	    1.0088970000 	    0.1560870000
C   	    4.4296350000 	   -0.0841170000 	    0.1699780000
C   	    3.9156920000 	   -1.3849630000 	    0.0872700000
C   	    2.5506240000 	   -1.5768190000 	   -0.0081140000
C   	    1.6716560000 	   -0.4870840000 	   -0.0234540000
C   	    0.2019000000 	   -0.7354290000 	   -0.1261290000
O   	   -0.2292290000 	   -1.8756030000 	   -0.1956570000
O   	   -2.7201280000 	    1.5891080000 	   -0.2286720000
H   	   -5.8300060000 	   -0.6184130000 	    0.8917680000
H   	   -4.5199070000 	    0.4722120000 	    1.3888840000
H   	   -4.3730330000 	   -1.2825310000 	    1.6605740000
H   	   -4.4260280000 	    0.1216850000 	   -1.0730500000
H   	   -4.3330370000 	   -1.6440920000 	   -0.8323020000
H   	   -0.6213190000 	    2.6084270000 	   -0.0554850000
H   	    1.6990180000 	    2.8174080000 	    0.0994100000
H   	    3.9808620000 	    2.0198740000 	    0.2205110000
H   	    5.5023780000 	    0.0724620000 	    0.2466180000
H   	    4.5902850000 	   -2.2362080000 	    0.0984740000
H   	    2.1112180000 	   -2.5679040000 	   -0.0743800000
