30
tauto -817.496737613
O   	   -0.0466460000 	    3.9595510000 	    0.0001040000
C   	    0.0032910000 	    2.6076010000 	    0.0000690000
C   	    1.2011020000 	    1.9001150000 	    0.0000390000
C   	    1.1421210000 	    0.5092250000 	    0.0000390000
C   	    2.4080120000 	   -0.2876400000 	    0.0000280000
N   	    3.5532880000 	    0.4038120000 	   -0.0005460000
C   	    4.6959710000 	   -0.2796240000 	   -0.0005600000
C   	    4.7638230000 	   -1.6687510000 	   -0.0000090000
C   	    3.5697150000 	   -2.3811180000 	    0.0006020000
C   	    2.3706260000 	   -1.6828390000 	    0.0006130000
N   	   -0.0039490000 	   -0.1738920000 	   -0.0000020000
C   	   -1.1487150000 	    0.5201530000 	    0.0000010000
C   	   -2.4169700000 	   -0.2734870000 	   -0.0000480000
N   	   -3.5602530000 	    0.4206670000 	    0.0002210000
C   	   -4.7046220000 	   -0.2592530000 	    0.0001880000
C   	   -4.7767630000 	   -1.6483870000 	   -0.0001130000
C   	   -3.5848110000 	   -2.3640210000 	   -0.0003920000
C   	   -2.3836990000 	   -1.6689690000 	   -0.0003560000
C   	   -1.2005380000 	    1.9087480000 	    0.0000630000
H   	    0.8553670000 	    4.3063330000 	    0.0002770000
H   	    2.1697280000 	    2.3914220000 	   -0.0000080000
H   	    5.6075920000 	    0.3163880000 	   -0.0010390000
H   	    5.7260170000 	   -2.1720580000 	   -0.0000500000
H   	    3.5726430000 	   -3.4683140000 	    0.0010800000
H   	    1.4099590000 	   -2.1851080000 	    0.0010730000
H   	   -5.6142050000 	    0.3398590000 	    0.0004030000
H   	   -5.7404230000 	   -2.1489540000 	   -0.0001330000
H   	   -3.5906930000 	   -3.4512490000 	   -0.0006450000
H   	   -1.4249310000 	   -2.1748130000 	   -0.0005780000
H   	   -2.1527430000 	    2.4254520000 	    0.0001000000
