17
tauto -493.041362
O   	   -1.7265610000 	    2.1059690000 	    0.0000070000
C   	   -1.3666260000 	    0.9372570000 	   -0.0000950000
C   	    0.0394430000 	    0.5084730000 	   -0.0000250000
C   	    1.0900530000 	    1.4387220000 	   -0.0000860000
C   	    2.3999000000 	    1.0105570000 	   -0.0001790000
C   	    2.6808140000 	   -0.3678000000 	   -0.0001830000
C   	    1.6667990000 	   -1.3017260000 	   -0.0001210000
C   	    0.3309310000 	   -0.8609820000 	   -0.0000360000
N   	   -0.7115820000 	   -1.7597540000 	    0.0001170000
N   	   -2.0063180000 	   -1.4373320000 	    0.0003400000
C   	   -2.3229410000 	   -0.1833090000 	    0.0003830000
H   	    0.8273620000 	    2.4929020000 	   -0.0001090000
H   	    3.2146870000 	    1.7284890000 	   -0.0002790000
H   	    3.7138080000 	   -0.7061530000 	   -0.0002680000
H   	    1.8882860000 	   -2.3666290000 	   -0.0001220000
H   	   -0.5323420000 	   -2.7520510000 	    0.0000590000
H   	   -3.3842560000 	    0.0481400000 	   -0.0004740000
