20
tauto -536.181273455
O   	   -3.4685900000 	    1.1361460000 	   -0.3662920000
C   	   -2.5940900000 	    0.3515570000 	   -0.1263960000
C   	   -2.4268450000 	   -0.5622720000 	    1.0334610000
C   	   -1.3052310000 	   -1.2519710000 	    0.8631180000
O   	   -1.5208750000 	    0.1657380000 	   -0.9558580000
C   	   -0.6489660000 	   -0.8315750000 	   -0.4279930000
C   	    0.7546000000 	   -0.2987280000 	   -0.2302740000
C   	    0.9641000000 	    1.0112630000 	    0.1978810000
C   	    2.2559130000 	    1.4726970000 	    0.4221650000
C   	    3.3462040000 	    0.6274440000 	    0.2286670000
C   	    3.1400640000 	   -0.6803370000 	   -0.1972440000
C   	    1.8466350000 	   -1.1397650000 	   -0.4298100000
H   	   -3.1390760000 	   -0.5995910000 	    1.8472350000
H   	   -0.8695550000 	   -1.9992320000 	    1.5175140000
H   	   -0.6268400000 	   -1.6674620000 	   -1.1395750000
H   	    0.1142840000 	    1.6746610000 	    0.3363720000
H   	    2.4129420000 	    2.4978890000 	    0.7471380000
H   	    4.3553130000 	    0.9913750000 	    0.4033590000
H   	    3.9862310000 	   -1.3430480000 	   -0.3590130000
H   	    1.6881200000 	   -2.1595290000 	   -0.7772720000
