23
tauto -554.627141897
C   	   -4.1892260000 	    0.3955950000 	    0.9085210000
C   	   -3.7016510000 	   -0.1538220000 	   -0.4204420000
O   	   -2.4608830000 	   -0.8499610000 	   -0.2772520000
C   	   -1.3443330000 	   -0.0753630000 	   -0.2456570000
C   	   -0.1568880000 	   -0.8986870000 	   -0.0965480000
C   	    1.1188100000 	   -0.4167070000 	   -0.0278630000
C   	    2.2451190000 	   -1.3251750000 	    0.1232700000
C   	    3.5153630000 	   -0.8770950000 	    0.1939010000
N   	    3.8017170000 	    0.4621600000 	    0.1261490000
C   	    2.7820440000 	    1.3714030000 	   -0.0168730000
C   	    1.4902330000 	    0.9899440000 	   -0.0940520000
O   	   -1.4024070000 	    1.1416660000 	   -0.3396380000
H   	   -5.1748490000 	    0.8586270000 	    0.7879440000
H   	   -3.4927630000 	    1.1523230000 	    1.2790190000
H   	   -4.2711720000 	   -0.4059130000 	    1.6495940000
H   	   -3.5817190000 	    0.6498340000 	   -1.1524590000
H   	   -4.3941120000 	   -0.9014500000 	   -0.8174910000
H   	   -0.3235400000 	   -1.9697190000 	   -0.0354490000
H   	    2.0586380000 	   -2.3930610000 	    0.1812870000
H   	    4.3675420000 	   -1.5391890000 	    0.3060290000
H   	    4.7557230000 	    0.7779400000 	    0.1791160000
H   	    3.0856860000 	    2.4120870000 	   -0.0637140000
H   	    0.7080280000 	    1.7291970000 	   -0.2073480000
