24
tauto -721.898242107
O   	    3.6756410000 	   -1.3713260000 	    0.0000700000
C   	    2.8709540000 	   -0.4439750000 	   -0.0000910000
C   	    3.2510150000 	    0.9628230000 	    0.0000200000
C   	    2.3110580000 	    1.9352340000 	    0.0000340000
N   	    0.9731230000 	    1.6708580000 	   -0.0000060000
C   	    0.5011180000 	    0.3861490000 	   -0.0000210000
C   	   -0.9084180000 	    0.1470510000 	   -0.0000040000
C   	    1.4083870000 	   -0.6771050000 	   -0.0000440000
C   	    0.9193220000 	   -1.9971740000 	   -0.0000360000
C   	   -0.4237390000 	   -2.2633830000 	   -0.0000070000
C   	   -1.3385030000 	   -1.1859970000 	    0.0000060000
N   	   -2.6907230000 	   -1.4527790000 	    0.0000620000
C   	   -3.6268620000 	   -0.4623480000 	    0.0000190000
C   	   -3.2817300000 	    0.8433550000 	    0.0000140000
C   	   -1.8865940000 	    1.2487750000 	    0.0000070000
O   	   -1.5587670000 	    2.4442190000 	   -0.0000470000
H   	    4.3065740000 	    1.2095600000 	    0.0000730000
H   	    2.5657310000 	    2.9907580000 	    0.0000830000
H   	    0.2582390000 	    2.4003890000 	    0.0000520000
H   	    1.6589000000 	   -2.7932490000 	   -0.0000560000
H   	   -0.7961170000 	   -3.2851480000 	    0.0000090000
H   	   -2.9860410000 	   -2.4170620000 	   -0.0001520000
H   	   -4.6595100000 	   -0.7968710000 	    0.0000280000
H   	   -4.0356140000 	    1.6215040000 	    0.0000160000
