30
tauto -800.476618344
C   	   -4.9858410000 	   -0.3326270000 	   -0.2209530000
C   	   -3.4965650000 	   -0.1850090000 	   -0.0587430000
C   	   -2.9321300000 	    1.0628460000 	    0.2423930000
C   	   -1.5583780000 	    1.1948020000 	    0.3327740000
C   	   -0.7287950000 	    0.0825450000 	    0.0244530000
C   	    0.7288140000 	    0.0825900000 	   -0.0256320000
O   	   -0.9986980000 	    2.3333530000 	    0.7894720000
N   	   -2.7603840000 	   -1.2745690000 	   -0.1816680000
C   	   -1.4154460000 	   -1.1459860000 	   -0.1077360000
C   	   -0.6681980000 	   -2.3783610000 	   -0.0882980000
C   	    0.6683280000 	   -2.3783880000 	    0.0866460000
C   	    1.4155800000 	   -1.1460040000 	    0.1065950000
N   	    2.7603410000 	   -1.2744630000 	    0.1811210000
C   	    3.4965390000 	   -0.1846790000 	    0.0591440000
C   	    4.9853690000 	   -0.3327570000 	    0.2248290000
C   	    2.9322420000 	    1.0630150000 	   -0.2423060000
C   	    1.5583950000 	    1.1948070000 	   -0.3335720000
O   	    0.9989870000 	    2.3333370000 	   -0.7905980000
H   	   -5.5339530000 	    0.2814070000 	    0.5013030000
H   	   -5.2660230000 	   -1.3800970000 	   -0.0927980000
H   	   -5.2928800000 	   -0.0168110000 	   -1.2250820000
H   	   -3.5760190000 	    1.9150940000 	    0.4545440000
H   	   -1.7047600000 	    2.9616720000 	    0.9905730000
H   	   -1.2444400000 	   -3.2954400000 	   -0.1644030000
H   	    1.2445750000 	   -3.2954780000 	    0.1625730000
H   	    5.2702320000 	   -1.3744570000 	    0.0636930000
H   	    5.2841770000 	   -0.0515350000 	    1.2416650000
H   	    5.5364130000 	    0.3073990000 	   -0.4718900000
H   	    3.5760540000 	    1.9154470000 	   -0.4538110000
H   	    1.7051320000 	    2.9617550000 	   -0.9910990000
