26
tauto -631.790483048
O   	    0.2664970000 	   -1.7540120000 	    0.1524840000
C   	    0.5209490000 	   -0.5526760000 	    0.0366210000
C   	   -0.4835650000 	    0.4835650000 	   -0.1091800000
C   	   -1.8404910000 	    0.2828480000 	   -0.0632330000
C   	   -2.7568380000 	    1.3951250000 	   -0.2418560000
C   	   -4.0960660000 	    1.2295070000 	   -0.1960200000
N   	   -4.6492950000 	   -0.0040310000 	    0.0233240000
C   	   -3.8371710000 	   -1.0958730000 	    0.1984830000
C   	   -2.4904850000 	   -0.9971830000 	    0.1626800000
C   	    1.9746660000 	   -0.1356640000 	    0.0199500000
C   	    2.4110710000 	    1.1610370000 	    0.2998890000
C   	    3.7684470000 	    1.4684090000 	    0.2836590000
C   	    4.7036220000 	    0.4839180000 	   -0.0192860000
C   	    4.2775030000 	   -0.8142540000 	   -0.2920090000
C   	    2.9233560000 	   -1.1209380000 	   -0.2637980000
H   	   -0.1420090000 	    1.4961850000 	   -0.3021350000
H   	   -2.3552090000 	    2.3884180000 	   -0.4174390000
H   	   -4.7970270000 	    2.0470890000 	   -0.3273310000
H   	   -5.6499870000 	   -0.1097960000 	    0.0529150000
H   	   -4.3482010000 	   -2.0383840000 	    0.3650460000
H   	   -1.8717220000 	   -1.8740470000 	    0.2972340000
H   	    1.6949300000 	    1.9360200000 	    0.5588470000
H   	    4.0958060000 	    2.4799150000 	    0.5114820000
H   	    5.7636560000 	    0.7256670000 	   -0.0373420000
H   	    5.0047580000 	   -1.5885870000 	   -0.5237130000
H   	    2.5681060000 	   -2.1290900000 	   -0.4561010000
