16
tauto -491.948668671
O   	    3.3836220000 	   -0.5483220000 	   -0.0000400000
N   	    2.3011080000 	    0.0307770000 	   -0.0000030000
C   	    1.1449970000 	   -0.7899110000 	    0.0000370000
C   	   -0.1483050000 	   -0.3510400000 	   -0.0000510000
C   	   -1.2067960000 	   -1.3453370000 	    0.0000140000
C   	   -2.5099130000 	   -0.9942270000 	    0.0000210000
N   	   -2.8873340000 	    0.3218070000 	   -0.0000180000
C   	   -1.9343620000 	    1.3049040000 	   -0.0000080000
C   	   -0.6120890000 	    1.0243090000 	   -0.0000330000
O   	    2.1949170000 	    1.2589950000 	    0.0000630000
H   	    1.3973500000 	   -1.8412410000 	   -0.0000030000
H   	   -0.9461370000 	   -2.3987750000 	    0.0000400000
H   	   -3.3145260000 	   -1.7213750000 	    0.0000320000
H   	   -3.8641870000 	    0.5666370000 	    0.0000660000
H   	   -2.3096290000 	    2.3227660000 	    0.0000190000
H   	    0.1112080000 	    1.8263350000 	   -0.0000660000
