19
tauto -568.539741339
C   	   -3.0175780000 	   -0.1569200000 	    0.8362180000
C   	   -2.2460240000 	    0.0884110000 	   -0.4635040000
C   	   -0.7524910000 	    0.0627990000 	   -0.2760070000
C   	   -0.1057010000 	   -1.2398290000 	   -0.1900340000
N   	    1.2842620000 	   -1.2082060000 	    0.0014620000
C   	    2.0905410000 	   -0.0988090000 	    0.1304820000
N   	    1.3828540000 	    1.0909460000 	    0.0502420000
O   	    3.2898340000 	   -0.1384540000 	    0.2990090000
O   	   -0.6818450000 	   -2.3101850000 	   -0.2738320000
C   	    0.0241580000 	    1.1636030000 	   -0.1353010000
O   	   -0.3880440000 	    2.4416030000 	   -0.1610340000
H   	   -4.0982550000 	   -0.1597540000 	    0.6588280000
H   	   -2.7942580000 	    0.6119600000 	    1.5848580000
H   	   -2.7375060000 	   -1.1290550000 	    1.2523250000
H   	   -2.5697850000 	    1.0339240000 	   -0.9247950000
H   	   -2.5033970000 	   -0.6931700000 	   -1.1856060000
H   	    1.7489850000 	   -2.1048910000 	    0.0601810000
H   	    1.9154640000 	    1.9439220000 	    0.1460450000
H   	   -1.3480610000 	    2.4586410000 	   -0.2780230000
