23
tauto -554.629635785
C   	   -4.1684380000 	    0.3799550000 	    0.9104180000
C   	   -3.6781520000 	   -0.1657480000 	   -0.4190040000
O   	   -2.4302730000 	   -0.8500430000 	   -0.2779530000
C   	   -1.3215310000 	   -0.0623620000 	   -0.2481440000
C   	   -0.1320780000 	   -0.8713850000 	   -0.1004570000
C   	    1.1375730000 	   -0.3605620000 	   -0.0314390000
N   	    2.2063500000 	   -1.2323730000 	    0.1113250000
C   	    3.5182350000 	   -0.8548290000 	    0.1940250000
C   	    3.8681520000 	    0.4495530000 	    0.1391490000
C   	    2.8154740000 	    1.4120720000 	   -0.0091610000
C   	    1.5156500000 	    1.0368610000 	   -0.0915700000
O   	   -1.3925830000 	    1.1544500000 	   -0.3422530000
H   	   -5.1583400000 	    0.8340220000 	    0.7910370000
H   	   -3.4783480000 	    1.1433630000 	    1.2791420000
H   	   -4.2421680000 	   -0.4215980000 	    1.6523590000
H   	   -3.5675560000 	    0.6384070000 	   -1.1517800000
H   	   -4.3640980000 	   -0.9203120000 	   -0.8143150000
H   	   -0.2814920000 	   -1.9455500000 	   -0.0397550000
H   	    1.9869130000 	   -2.2171030000 	    0.1555040000
H   	    4.2301100000 	   -1.6660270000 	    0.3037180000
H   	    4.9079310000 	    0.7461610000 	    0.2056120000
H   	    3.0669920000 	    2.4685320000 	   -0.0573420000
H   	    0.7091450000 	    1.7501360000 	   -0.2047120000
