16
tauto -491.948353181
O   	    3.3485140000 	   -0.5644860000 	    0.0000770000
N   	    2.2732240000 	    0.0300900000 	   -0.0000070000
C   	    1.1142430000 	   -0.7704490000 	   -0.0000250000
C   	   -0.1769240000 	   -0.3009290000 	   -0.0000450000
N   	   -1.1844360000 	   -1.2488730000 	   -0.0000230000
C   	   -2.5214210000 	   -0.9689950000 	    0.0000100000
C   	   -2.9593140000 	    0.3110940000 	    0.0000060000
C   	   -1.9717100000 	    1.3442370000 	    0.0000290000
C   	   -0.6421780000 	    1.0660240000 	    0.0000290000
O   	    2.1839350000 	    1.2605660000 	   -0.0000750000
H   	    1.3425890000 	   -1.8278180000 	    0.0000660000
H   	   -0.9017520000 	   -2.2189630000 	   -0.0000450000
H   	   -3.1768020000 	   -1.8331090000 	    0.0000070000
H   	   -4.0194570000 	    0.5328440000 	   -0.0000370000
H   	   -2.2919120000 	    2.3828100000 	    0.0001160000
H   	    0.1100510000 	    1.8411900000 	    0.0000590000
