25
tauto -534.869826371
C   	   -3.0189170000 	   -2.1272580000 	    0.2459960000
C   	   -1.9536720000 	   -1.1036900000 	    0.6262290000
C   	   -1.1174990000 	   -0.6689210000 	   -0.5856180000
C   	   -0.0865330000 	    0.3692320000 	   -0.2292250000
C   	    1.3308950000 	    0.0277360000 	    0.1051480000
C   	    1.7949300000 	   -1.3292190000 	   -0.3966230000
C   	    3.2678880000 	   -1.6026840000 	   -0.1268170000
N   	    2.1582400000 	    0.7306430000 	    0.7718440000
N   	   -0.5693550000 	    1.5846520000 	   -0.1740450000
O   	   -1.7407390000 	    1.9487960000 	   -0.3840070000
O   	    0.2989030000 	    2.6284830000 	    0.1214020000
H   	   -3.6057160000 	   -2.4314330000 	    1.1187190000
H   	   -2.5670240000 	   -3.0291320000 	   -0.1841540000
H   	   -3.7118650000 	   -1.7146560000 	   -0.4962470000
H   	   -1.2896130000 	   -1.5212850000 	    1.3948270000
H   	   -2.4258250000 	   -0.2141720000 	    1.0591950000
H   	   -1.7839970000 	   -0.2457910000 	   -1.3453560000
H   	   -0.6282240000 	   -1.5400620000 	   -1.0287480000
H   	    1.5854150000 	   -1.3982150000 	   -1.4730990000
H   	    1.1804670000 	   -2.1087040000 	    0.0753380000
H   	    3.8997520000 	   -0.8495010000 	   -0.6051750000
H   	    3.5435940000 	   -2.5898900000 	   -0.5119540000
H   	    3.4810280000 	   -1.5687160000 	    0.9443630000
H   	    1.7518420000 	    1.6149990000 	    1.0686440000
H   	   -0.3198810000 	    3.3800840000 	    0.0653430000
