22
tauto -495.58083826
C   	    0.9560350000 	   -1.2075250000 	   -1.2602620000
C   	    1.2366760000 	   -0.3546660000 	   -0.0110910000
C   	    1.0267320000 	   -1.1532070000 	    1.2881490000
C   	    2.7223590000 	    0.0474050000 	   -0.0603280000
C   	    0.3125660000 	    0.8753490000 	    0.0000420000
N   	    0.9441250000 	    2.0813470000 	    0.0693670000
C   	   -1.0533100000 	    0.9406880000 	   -0.0216700000
N   	   -2.0328760000 	   -0.0876600000 	    0.0024010000
O   	   -1.7242690000 	   -1.2769090000 	    0.0714370000
O   	   -3.1974000000 	    0.2940830000 	   -0.0471500000
H   	    1.6257510000 	   -2.0753170000 	   -1.2609240000
H   	    1.1525190000 	   -0.6314020000 	   -2.1723160000
H   	   -0.0718460000 	   -1.5675580000 	   -1.2817160000
H   	    1.6912140000 	   -2.0251510000 	    1.2866680000
H   	   -0.0011830000 	   -1.5022730000 	    1.3822490000
H   	    1.2785090000 	   -0.5379140000 	    2.1599610000
H   	    3.3254890000 	   -0.8655510000 	   -0.0560140000
H   	    3.0269770000 	    0.6381490000 	    0.8113760000
H   	    2.9815590000 	    0.5907500000 	   -0.9784110000
H   	    1.9205640000 	    2.1605100000 	   -0.1530300000
H   	    0.4007180000 	    2.9277220000 	   -0.0045280000
H   	   -1.5420200000 	    1.9065740000 	   -0.0390280000
