17
tauto -360.052916063
C   	    0.2850620000 	    1.6838230000 	   -0.0000710000
C   	    0.1462560000 	    0.2304570000 	    0.3629830000
C   	    1.3657670000 	   -0.5286780000 	    0.8391580000
C   	    2.4595810000 	   -0.4864160000 	   -0.1409650000
N   	    3.3121310000 	   -0.4257400000 	   -0.9203300000
N   	   -0.9490740000 	   -0.4257540000 	    0.3365020000
N   	   -2.0899850000 	    0.2399560000 	   -0.0144470000
C   	   -3.1581770000 	   -0.6595200000 	   -0.4151790000
H   	    1.2941980000 	    2.0533170000 	    0.1986090000
H   	   -0.4312460000 	    2.2879820000 	    0.5707350000
H   	    0.0844480000 	    1.8521530000 	   -1.0671580000
H   	    1.0833940000 	   -1.5680080000 	    1.0271580000
H   	    1.7430450000 	   -0.1044610000 	    1.7790950000
H   	   -1.9396310000 	    0.9875400000 	   -0.6876650000
H   	   -3.3451140000 	   -1.3626830000 	    0.3993730000
H   	   -2.9269880000 	   -1.2321630000 	   -1.3245360000
H   	   -4.0645500000 	   -0.0709080000 	   -0.5832430000
