21
tauto -515.439164556
C   	    2.2778060000 	   -0.3503720000 	   -1.2624330000
C   	    1.5774020000 	    0.1868130000 	   -0.0000100000
C   	    2.2773910000 	   -0.3493120000 	    1.2631100000
C   	    1.6753640000 	    1.7149290000 	   -0.0006170000
C   	    0.1315260000 	   -0.3050780000 	   -0.0000580000
O   	   -0.0429410000 	   -1.6346630000 	    0.0000820000
C   	   -0.9140210000 	    0.5417230000 	   -0.0001090000
N   	   -2.2999150000 	    0.1532180000 	   -0.0000560000
O   	   -2.6041050000 	   -1.0280630000 	   -0.0000760000
O   	   -3.1045780000 	    1.0783830000 	    0.0001280000
H   	    3.3198640000 	   -0.0137860000 	   -1.2777960000
H   	    1.7842420000 	    0.0170190000 	   -2.1681650000
H   	    2.2931720000 	   -1.4459090000 	   -1.3114310000
H   	    3.3198210000 	   -0.0138420000 	    1.2779220000
H   	    2.2914190000 	   -1.4447830000 	    1.3137430000
H   	    1.7842330000 	    0.0199360000 	    2.1683070000
H   	    2.7305240000 	    2.0075620000 	   -0.0004940000
H   	    1.2081370000 	    2.1505330000 	    0.8885680000
H   	    1.2084150000 	    2.1498410000 	   -0.8902850000
H   	    0.8200930000 	   -2.0695760000 	    0.0000940000
H   	   -0.8003260000 	    1.6130020000 	   -0.0004490000
