17
tauto -360.04591572
C   	   -0.8518810000 	    1.8177980000 	    0.2718640000
C   	   -0.1675470000 	    0.5445570000 	   -0.1350500000
N   	    1.1760380000 	    0.7063650000 	   -0.4180010000
N   	    1.9661950000 	   -0.4366410000 	   -0.5458660000
C   	    2.6582910000 	   -0.7899960000 	    0.6841240000
C   	   -0.7950420000 	   -0.6445400000 	   -0.2632010000
C   	   -2.1934650000 	   -0.7774630000 	   -0.0252920000
N   	   -3.3319000000 	   -0.8877430000 	    0.1751250000
H   	   -0.4245530000 	    2.2035080000 	    1.2055090000
H   	   -1.9203750000 	    1.6580380000 	    0.4239620000
H   	   -0.7168010000 	    2.5826620000 	   -0.5006170000
H   	    1.6142750000 	    1.4919540000 	    0.0576180000
H   	    2.6151680000 	   -0.2874230000 	   -1.3101470000
H   	    1.9182780000 	   -1.0705170000 	    1.4396960000
H   	    3.2821500000 	    0.0255470000 	    1.0885860000
H   	    3.2981340000 	   -1.6558630000 	    0.4914800000
H   	   -0.2407520000 	   -1.5239160000 	   -0.5695660000
