26
tauto -735.40000989
C   	    1.1377950000 	    3.1428450000 	   -0.5294390000
C   	   -0.0080620000 	    2.1862090000 	   -0.3027800000
C   	    0.0083310000 	    0.8597110000 	   -0.0923440000
N   	    1.2175210000 	    0.1144900000 	    0.0404400000
C   	    2.5723880000 	    0.6243990000 	    0.2489140000
C   	    3.3494010000 	   -0.6567840000 	    0.5848070000
N   	    2.5392580000 	   -1.6680360000 	   -0.0834530000
C   	    1.2481250000 	   -1.2229430000 	   -0.1485970000
N   	    0.2350260000 	   -2.0128370000 	   -0.3457160000
C   	   -0.9999490000 	   -1.4279950000 	   -0.2242360000
N   	   -1.9966560000 	   -2.3132710000 	   -0.3091910000
C   	   -1.1663440000 	   -0.0446210000 	    0.0023320000
N   	   -2.4517230000 	    0.4764270000 	    0.2629160000
O   	   -2.5818840000 	    1.6570520000 	    0.5765860000
O   	   -3.4459150000 	   -0.2706070000 	    0.1925350000
H   	    0.7334350000 	    4.0882260000 	   -0.9015000000
H   	    1.8550340000 	    2.7959630000 	   -1.2803170000
H   	    1.6947230000 	    3.3853920000 	    0.3845310000
H   	   -0.9910280000 	    2.6315200000 	   -0.3213360000
H   	    2.5928850000 	    1.3565670000 	    1.0576130000
H   	    2.9618560000 	    1.0844950000 	   -0.6635690000
H   	    3.3882720000 	   -0.8243330000 	    1.6697730000
H   	    4.3685620000 	   -0.6338040000 	    0.1921510000
H   	    2.6528730000 	   -2.6454880000 	    0.1428430000
H   	   -1.7397640000 	   -3.2811140000 	   -0.4186230000
H   	   -2.9485460000 	   -1.9913240000 	   -0.2014550000
