16
tauto -416.972854293
C   	    3.2750690000 	    0.4388800000 	    0.7961910000
C   	    2.6492530000 	    0.0277350000 	   -0.5331860000
N   	    1.4029950000 	   -0.7064020000 	   -0.3831780000
C   	    0.2031140000 	   -0.0976240000 	   -0.2882740000
C   	   -0.9628390000 	   -0.6792010000 	    0.0611660000
N   	   -2.1582330000 	    0.1040030000 	    0.0645540000
O   	   -3.1891810000 	   -0.4725500000 	    0.3860720000
O   	   -2.1011140000 	    1.2913630000 	   -0.2433980000
H   	    4.2120930000 	    0.9803160000 	    0.6292140000
H   	    3.4965090000 	   -0.4386480000 	    1.4133620000
H   	    2.5968290000 	    1.0880330000 	    1.3597290000
H   	    3.3419240000 	   -0.5953790000 	   -1.1090820000
H   	    2.4371010000 	    0.9105120000 	   -1.1459260000
H   	    1.4688850000 	   -1.6659830000 	   -0.0736420000
H   	    0.1839760000 	    0.9598060000 	   -0.5441570000
H   	   -1.1158690000 	   -1.7110940000 	    0.3441100000
