19
tauto -365.12899946
C   	   -0.1988850000 	    1.9920940000 	    0.0144520000
C   	   -0.0212180000 	    0.4890470000 	   -0.0080310000
C   	    1.3876690000 	    0.0305710000 	   -0.0115620000
C   	    1.7484440000 	   -1.4375160000 	    0.1666920000
O   	    2.3053450000 	    0.8312760000 	   -0.1230650000
C   	   -1.1224480000 	   -0.3122480000 	   -0.0111230000
C   	   -2.5019320000 	    0.2959680000 	    0.0780840000
N   	   -1.1540750000 	   -1.6938580000 	   -0.0733070000
H   	    0.7692810000 	    2.4619190000 	   -0.1641110000
H   	   -0.5708490000 	    2.3525550000 	    0.9830190000
H   	   -0.8962180000 	    2.3421090000 	   -0.7556130000
H   	    1.6020960000 	   -1.9896650000 	   -0.7720410000
H   	    1.1629040000 	   -1.9218610000 	    0.9543580000
H   	    2.8109390000 	   -1.4870010000 	    0.4112620000
H   	   -2.5276320000 	    1.1196280000 	    0.7949450000
H   	   -3.2418660000 	   -0.4476980000 	    0.3907420000
H   	   -2.8104480000 	    0.6980730000 	   -0.8945770000
H   	   -0.3707630000 	   -2.1744530000 	   -0.4838380000
H   	   -2.0414480000 	   -2.0942990000 	   -0.3375570000
