24
tauto -680.017788418
N   	   -1.7951020000 	    2.7994700000 	    0.2626380000
N   	   -2.0607890000 	    1.4312340000 	    0.2217550000
C   	   -1.0388530000 	    0.5481820000 	    0.0757660000
N   	    0.2035390000 	    1.0950390000 	    0.1383200000
C   	    1.4519790000 	    0.4306010000 	    0.0785370000
C   	    2.4384830000 	    0.9397320000 	   -0.7660700000
C   	    3.6955980000 	    0.3476740000 	   -0.8064200000
C   	    3.9714190000 	   -0.7659510000 	   -0.0190080000
C   	    2.9860870000 	   -1.2723710000 	    0.8236840000
C   	    1.7336490000 	   -0.6717510000 	    0.8870950000
C   	   -1.2485080000 	   -0.8080090000 	   -0.1240290000
N   	   -2.5129270000 	   -1.3878740000 	   -0.2265070000
O   	   -2.5718050000 	   -2.5939140000 	   -0.4411330000
O   	   -3.5432210000 	   -0.6910810000 	   -0.1001210000
H   	   -2.2315390000 	    3.2575130000 	   -0.5326330000
H   	   -2.1814080000 	    3.1921300000 	    1.1158520000
H   	   -2.9933370000 	    1.0396410000 	    0.1078580000
H   	    0.1934130000 	    2.1084830000 	    0.1486800000
H   	    2.2108720000 	    1.7961850000 	   -1.3964230000
H   	    4.4576900000 	    0.7519620000 	   -1.4674120000
H   	    4.9501060000 	   -1.2358620000 	   -0.0596760000
H   	    3.1954690000 	   -2.1350080000 	    1.4506260000
H   	    0.9749160000 	   -1.0479020000 	    1.5671490000
H   	   -0.4381440000 	   -1.5009060000 	   -0.2747680000
