24
tauto -704.813765159
O   	   -2.3101020000 	    2.3886220000 	    0.2244850000
C   	   -2.3199020000 	    1.1876960000 	    0.2199030000
C   	   -2.8020420000 	    0.2932030000 	    1.3505180000
O   	   -2.9665340000 	   -1.0055070000 	    0.7798150000
C   	   -1.8906160000 	    0.2566710000 	   -0.9030510000
C   	   -0.3868470000 	    0.0950160000 	   -0.9301730000
N   	    0.2789380000 	    0.2798170000 	    0.1318490000
C   	    1.6857160000 	    0.1209450000 	    0.0927990000
C   	    2.2945000000 	   -0.5658330000 	    1.1445020000
C   	    3.6708650000 	   -0.7500020000 	    1.1489350000
C   	    4.4530530000 	   -0.2256150000 	    0.1217600000
C   	    3.8494520000 	    0.4846110000 	   -0.9107930000
C   	    2.4690030000 	    0.6584210000 	   -0.9303550000
C   	   -2.5082820000 	   -1.0803210000 	   -0.4934150000
O   	   -2.5767450000 	   -2.0793870000 	   -1.1480850000
H   	   -3.7554080000 	    0.6334800000 	    1.7622130000
H   	   -2.0451470000 	    0.2551140000 	    2.1406820000
H   	   -2.2698310000 	    0.5711510000 	   -1.8787650000
H   	    0.0608090000 	   -0.2337540000 	   -1.8761820000
H   	    1.6718390000 	   -0.9570920000 	    1.9441740000
H   	    4.1374510000 	   -1.2973290000 	    1.9637690000
H   	    5.5312500000 	   -0.3600480000 	    0.1341060000
H   	    4.4550920000 	    0.9128710000 	   -1.7052680000
H   	    1.9990370000 	    1.2383170000 	   -1.7211740000
