20
tauto -527.628208288
C   	    2.5542120000 	   -1.6685120000 	    0.7274950000
C   	    2.2818160000 	   -0.9064330000 	   -0.5670170000
N   	    1.5587060000 	    0.3425620000 	   -0.3779890000
C   	    0.2255980000 	    0.4156480000 	   -0.0925840000
N   	   -0.2454800000 	    1.6477200000 	    0.2378320000
N   	    0.4639470000 	    2.8279670000 	    0.0434100000
C   	   -0.5800400000 	   -0.7091660000 	   -0.1590060000
N   	   -1.9720240000 	   -0.6853230000 	   -0.0161320000
O   	   -2.5618250000 	    0.3823090000 	    0.2323690000
O   	   -2.5703080000 	   -1.7485420000 	   -0.1430570000
H   	    3.0857990000 	   -2.6020460000 	    0.5165350000
H   	    1.6213060000 	   -1.9134010000 	    1.2443360000
H   	    3.1731240000 	   -1.0717020000 	    1.4063190000
H   	    1.7173950000 	   -1.5208320000 	   -1.2748410000
H   	    3.2232110000 	   -0.6521230000 	   -1.0645590000
H   	    2.1062630000 	    1.1187880000 	   -0.0381240000
H   	   -1.2558820000 	    1.7188090000 	    0.2982580000
H   	    0.8968870000 	    2.8590770000 	   -0.8755500000
H   	    1.1575110000 	    2.9674620000 	    0.7712340000
H   	   -0.1941060000 	   -1.6938690000 	   -0.3612840000
