23
tauto -720.91099016
O   	    0.3905530000 	    2.3185620000 	    0.3786140000
C   	    0.9529990000 	    1.1076090000 	    0.1912780000
N   	    2.3356380000 	    1.0979350000 	    0.2232660000
C   	    3.1082040000 	   -0.0362930000 	   -0.0033190000
N   	    2.3494270000 	   -1.1678000000 	   -0.1683730000
O   	    4.3183290000 	    0.0009150000 	   -0.0453090000
C   	    0.2183640000 	   -0.0119490000 	   -0.0181600000
C   	   -1.2662870000 	   -0.0132050000 	   -0.0180140000
C   	   -1.9726350000 	   -1.0251240000 	    0.6416410000
C   	   -3.3622560000 	   -1.0227310000 	    0.6537860000
C   	   -4.0697290000 	   -0.0138960000 	    0.0062450000
C   	   -3.3766560000 	    0.9910660000 	   -0.6602010000
C   	   -1.9860920000 	    0.9886000000 	   -0.6761840000
C   	    0.9477170000 	   -1.2711940000 	   -0.2186840000
O   	    0.4474860000 	   -2.3633720000 	   -0.3985690000
H   	    0.9353640000 	    2.8505590000 	    0.9752030000
H   	    2.8492590000 	    1.9661100000 	    0.1605950000
H   	    2.8584700000 	   -2.0284510000 	   -0.3239540000
H   	   -1.4279090000 	   -1.8240000000 	    1.1337800000
H   	   -3.8948510000 	   -1.8164810000 	    1.1715330000
H   	   -5.1568560000 	   -0.0148800000 	    0.0162450000
H   	   -3.9186190000 	    1.7787580000 	   -1.1776530000
H   	   -1.4530340000 	    1.7713040000 	   -1.2082000000
