28
tauto -724.241530314
C   	    4.6562760000 	   -1.9969320000 	   -0.1856330000
C   	    4.4908200000 	   -0.6526420000 	    0.4946790000
O   	    3.4473940000 	    0.1234970000 	   -0.1359210000
C   	    2.2005380000 	   -0.1537050000 	    0.2344130000
C   	    1.1984710000 	    0.7324600000 	   -0.5147490000
C   	   -0.2107300000 	    0.4721420000 	   -0.0276380000
N   	   -1.0915600000 	    0.0922900000 	   -0.8513460000
C   	   -2.4148830000 	   -0.0965150000 	   -0.3803190000
C   	   -3.0518920000 	    0.8342020000 	    0.4427000000
C   	   -4.3606250000 	    0.6103130000 	    0.8588870000
C   	   -5.0357280000 	   -0.5398460000 	    0.4636300000
C   	   -4.4023250000 	   -1.4616940000 	   -0.3677510000
C   	   -3.1028640000 	   -1.2354060000 	   -0.8021500000
C   	    1.5419110000 	    2.1532730000 	   -0.3637000000
N   	    1.7762890000 	    3.2763970000 	   -0.2215930000
O   	    1.8698040000 	   -0.9932480000 	    1.0337600000
H   	    5.5012120000 	   -2.5329630000 	    0.2584390000
H   	    4.8533360000 	   -1.8674840000 	   -1.2540470000
H   	    3.7573610000 	   -2.6060370000 	   -0.0578780000
H   	    5.3822730000 	   -0.0314170000 	    0.3908250000
H   	    4.2471650000 	   -0.7664790000 	    1.5539430000
H   	    1.2427770000 	    0.4774940000 	   -1.5801400000
H   	   -0.3969080000 	    0.6273850000 	    1.0417270000
H   	   -2.5320680000 	    1.7457050000 	    0.7284790000
H   	   -4.8548450000 	    1.3425640000 	    1.4921360000
H   	   -6.0574740000 	   -0.7123450000 	    0.7908980000
H   	   -4.9279020000 	   -2.3575950000 	   -0.6879140000
H   	   -2.5994240000 	   -1.9355220000 	   -1.4628200000
