21
tauto -478.440978504
C   	    2.7216000000 	    0.6168430000 	    0.1675050000
C   	    1.7151780000 	   -0.5160900000 	    0.0346830000
C   	    0.2697840000 	   -0.2715830000 	   -0.0357480000
C   	   -0.3280210000 	    0.9541600000 	   -0.0646010000
N   	    0.2743140000 	    2.1908110000 	   -0.1624460000
O   	   -1.6638980000 	    1.1360640000 	    0.0255420000
C   	   -2.4390640000 	    0.0099240000 	    0.4473360000
C   	   -2.0405000000 	   -1.2209100000 	   -0.3414630000
C   	   -0.5742810000 	   -1.5296560000 	   -0.0579060000
O   	    2.1325850000 	   -1.6677420000 	    0.0141120000
H   	    2.4084050000 	    1.3727000000 	    0.8935950000
H   	    2.8780470000 	    1.1126850000 	   -0.8003860000
H   	    3.6734780000 	    0.1765940000 	    0.4698670000
H   	    1.0933400000 	    2.2520980000 	   -0.7461830000
H   	   -0.3922140000 	    2.9345670000 	   -0.3176660000
H   	   -3.4771700000 	    0.3076270000 	    0.2840180000
H   	   -2.2754840000 	   -0.1433800000 	    1.5223780000
H   	   -2.1975770000 	   -1.0163660000 	   -1.4076850000
H   	   -2.6844740000 	   -2.0642670000 	   -0.0691980000
H   	   -0.1670480000 	   -2.2143300000 	   -0.8085970000
H   	   -0.4771770000 	   -2.0563050000 	    0.9009240000
