25
tauto -751.42426091
C   	    1.8086660000 	    2.6764600000 	   -0.9120620000
N   	    0.4617750000 	    2.1750330000 	   -0.7259600000
C   	    0.2571570000 	    0.9477300000 	   -0.4752220000
C   	   -1.1913940000 	    0.5265510000 	   -0.4031370000
C   	   -1.4083150000 	   -0.9259740000 	   -0.7903710000
N   	   -2.6431010000 	   -1.2166310000 	   -1.2715160000
N   	   -0.5008190000 	   -1.8252600000 	   -0.6880030000
N   	   -1.7220510000 	    0.6723840000 	    1.0094420000
O   	   -2.9362570000 	    0.6803120000 	    1.1120890000
O   	   -0.9274420000 	    0.7375210000 	    1.9216840000
N   	    1.1588990000 	   -0.0817450000 	   -0.2737650000
C   	    0.7394820000 	   -1.4387100000 	   -0.2060590000
N   	    1.5806490000 	   -2.2515530000 	    0.2898260000
C   	    2.7590200000 	   -1.4814330000 	    0.6715890000
C   	    2.3920810000 	    0.0124620000 	    0.5156780000
H   	    1.7492190000 	    3.6560060000 	   -1.3930610000
H   	    2.4134890000 	    2.0144150000 	   -1.5468350000
H   	    2.3293070000 	    2.8085470000 	    0.0445220000
H   	   -1.7972420000 	    1.2023650000 	   -1.0055380000
H   	   -3.4069000000 	   -0.6197500000 	   -0.9860030000
H   	   -2.8533780000 	   -2.2017150000 	   -1.3595860000
H   	    3.5925710000 	   -1.7605690000 	    0.0157130000
H   	    3.0537240000 	   -1.7252520000 	    1.6965110000
H   	    3.1687310000 	    0.5829280000 	    0.0038980000
H   	    2.1724210000 	    0.4922500000 	    1.4775180000
