31
tauto -820.784631331
C   	    4.0784790000 	   -1.5234310000 	   -0.7940970000
C   	    2.6447550000 	   -1.5692150000 	   -0.2825830000
N   	    2.3689220000 	   -0.3748010000 	    0.5112590000
C   	    1.3061510000 	    0.4327260000 	    0.4458220000
O   	    1.5243720000 	    1.6782030000 	    0.9058920000
C   	    2.4338520000 	    2.5106440000 	    0.1783700000
C   	    0.0235110000 	    0.0963460000 	    0.0222140000
C   	   -0.7971110000 	    1.1552030000 	   -0.5790260000
O   	   -2.1133570000 	    0.8549870000 	   -0.7535630000
C   	   -2.6697070000 	   -0.2278140000 	   -0.0166210000
C   	   -2.8770630000 	    0.1771370000 	    1.4377070000
C   	   -3.9614630000 	   -0.5922160000 	   -0.7167100000
O   	   -1.8407420000 	   -1.3820010000 	   -0.0930420000
O   	   -0.3899800000 	    2.2121390000 	   -1.0039130000
C   	   -0.5117700000 	   -1.2506810000 	    0.1893110000
O   	    0.0962500000 	   -2.2336330000 	    0.5515050000
H   	    4.2942440000 	   -2.4224670000 	   -1.3789370000
H   	    4.7982940000 	   -1.4904030000 	    0.0329640000
H   	    4.2461830000 	   -0.6499690000 	   -1.4334200000
H   	    2.4512490000 	   -2.4648280000 	    0.3106840000
H   	    1.9335050000 	   -1.5801670000 	   -1.1111860000
H   	    3.1272940000 	   -0.0297020000 	    1.0859530000
H   	    2.6950750000 	    3.3302440000 	    0.8483550000
H   	    1.9170370000 	    2.8889150000 	   -0.7065080000
H   	    3.3406350000 	    1.9642940000 	   -0.1061120000
H   	   -3.5387940000 	    1.0462680000 	    1.4859220000
H   	   -1.9258880000 	    0.4366530000 	    1.9120300000
H   	   -3.3295430000 	   -0.6515190000 	    1.9891590000
H   	   -4.6433830000 	    0.2619610000 	   -0.7060640000
H   	   -4.4317740000 	   -1.4393000000 	   -0.2107460000
H   	   -3.7467320000 	   -0.8661120000 	   -1.7522730000
