15
tauto -341.865065865
C   	   -1.6788030000 	    1.2115830000 	    0.0993640000
C   	   -1.3642800000 	   -0.2763890000 	   -0.0039380000
C   	    0.0115390000 	   -0.7620210000 	   -0.0354470000
C   	    1.1911170000 	   -0.0815390000 	   -0.0156540000
N   	    1.3842880000 	    1.2791760000 	   -0.1625820000
N   	    2.4020450000 	   -0.7410140000 	    0.1533200000
O   	   -2.2943450000 	   -1.0691790000 	   -0.0539540000
H   	   -1.3984790000 	    1.7394540000 	   -0.8212910000
H   	   -1.1655860000 	    1.6791190000 	    0.9482980000
H   	   -2.7561510000 	    1.3177940000 	    0.2371790000
H   	    0.0732110000 	   -1.8463330000 	   -0.0707400000
H   	    0.5576320000 	    1.8538670000 	   -0.1774410000
H   	    2.1194700000 	    1.6574610000 	    0.4195970000
H   	    2.3257640000 	   -1.7485460000 	    0.1571730000
H   	    3.1371240000 	   -0.4163210000 	   -0.4622600000
