12
tauto -373.705039882
N   	   -1.1548180000 	    1.6819170000 	    0.0000040000
C   	    0.0000000000 	    0.9875900000 	    0.0000000000
N   	    1.1548180000 	    1.6819170000 	   -0.0000050000
C   	    0.0000000000 	   -0.4109550000 	    0.0000000000
C   	   -1.2443480000 	   -1.0902500000 	    0.0000020000
N   	   -2.3130210000 	   -1.5475510000 	   -0.0000030000
C   	    1.2443480000 	   -1.0902500000 	    0.0000000000
N   	    2.3130210000 	   -1.5475510000 	    0.0000020000
H   	   -1.1752560000 	    2.6873960000 	   -0.0000060000
H   	   -2.0327900000 	    1.1836350000 	    0.0000050000
H   	    1.1752560000 	    2.6873960000 	    0.0000110000
H   	    2.0327900000 	    1.1836350000 	   -0.0000010000
