24
tauto -738.090415498
O   	   -0.9339160000 	    4.3097170000 	   -0.4826320000
C   	   -0.3125550000 	    3.2980220000 	   -0.2872480000
C   	   -0.8070110000 	    2.2104420000 	    0.6604470000
C   	   -0.3535130000 	    0.8414290000 	    0.2501140000
N   	   -1.2711800000 	   -0.1345890000 	    0.1739510000
N   	    0.9075130000 	    0.6383540000 	   -0.0262500000
C   	    1.2240860000 	   -0.6513170000 	   -0.3874580000
C   	    2.6732710000 	   -0.8765830000 	   -0.7071260000
C   	    3.6028680000 	   -0.4498250000 	    0.4178240000
O   	    4.6425400000 	   -1.0107380000 	    0.6545380000
N   	    0.4095660000 	   -1.6628390000 	   -0.4641980000
C   	   -0.9139220000 	   -1.4308530000 	   -0.1803260000
C   	   -1.8718340000 	   -2.4097730000 	   -0.2329380000
C   	   -3.2451110000 	   -2.1378080000 	    0.0735860000
O   	   -3.7073530000 	   -1.0361620000 	    0.4041170000
H   	    0.6667450000 	    3.1009370000 	   -0.7632770000
H   	   -1.8935630000 	    2.2834840000 	    0.7554890000
H   	   -0.3655510000 	    2.4255820000 	    1.6430540000
H   	   -2.2793160000 	   -0.0208310000 	    0.3771550000
H   	    2.9292700000 	   -0.2485930000 	   -1.5729870000
H   	    2.8575460000 	   -1.9209310000 	   -0.9630120000
H   	    3.2721680000 	    0.4349090000 	    0.9978120000
H   	   -1.5614370000 	   -3.4086220000 	   -0.5126720000
H   	   -3.9349980000 	   -2.9973510000 	    0.0044820000
