33
tauto -856.033157434
C   	   -3.8413490000 	   -0.9204100000 	    0.0019640000
C   	   -3.1106060000 	   -2.2468970000 	    0.0017100000
C   	   -1.6422480000 	   -2.3094910000 	   -0.0002970000
C   	   -0.7110540000 	   -1.3266840000 	   -0.0020220000
N   	   -0.9349490000 	    0.0345940000 	   -0.0022700000
C   	    0.0446750000 	    0.9909110000 	   -0.0050840000
N   	    1.3384680000 	    0.5342400000 	   -0.0098400000
C   	   -0.2417540000 	    2.3292830000 	   -0.0032720000
C   	   -1.5972170000 	    2.8261520000 	    0.0025740000
C   	   -1.7766280000 	    4.3279870000 	    0.0061370000
O   	   -2.5917430000 	    2.0872510000 	    0.0051440000
N   	    0.6397870000 	   -1.6689470000 	   -0.0032270000
C   	    1.6861970000 	   -0.7858360000 	   -0.0063540000
C   	    2.9947590000 	   -1.1923070000 	   -0.0062250000
C   	    4.0888050000 	   -0.2489260000 	   -0.0046940000
C   	    5.4871190000 	   -0.8267880000 	    0.0198570000
O   	    3.9325330000 	    0.9795880000 	   -0.0113980000
O   	   -3.7391390000 	   -3.2936090000 	    0.0031650000
H   	   -3.5963840000 	   -0.3202640000 	    0.8858350000
H   	   -4.9132690000 	   -1.1242480000 	    0.0030310000
H   	   -3.5979540000 	   -0.3207720000 	   -0.8826780000
H   	   -1.2684420000 	   -3.3301150000 	   -0.0002990000
H   	   -1.8774180000 	    0.4387560000 	    0.0007710000
H   	    2.1458980000 	    1.1688840000 	   -0.0117510000
H   	    0.5856880000 	    3.0306490000 	   -0.0054750000
H   	   -1.2988930000 	    4.7671120000 	    0.8889650000
H   	   -2.8415010000 	    4.5661510000 	    0.0095510000
H   	   -1.3034930000 	    4.7709990000 	   -0.8772090000
H   	    0.8601470000 	   -2.6530960000 	   -0.0012960000
H   	    3.2083490000 	   -2.2562240000 	   -0.0024150000
H   	    5.6191900000 	   -1.5650350000 	   -0.7783780000
H   	    5.6627220000 	   -1.3378300000 	    0.9734750000
H   	    6.2148080000 	   -0.0219820000 	   -0.0958210000
