28
tauto -781.522468204
C   	    3.6465740000 	   -1.1812290000 	    1.0348740000
C   	    3.6412750000 	    0.0338830000 	    0.1134650000
N   	    2.3852500000 	    0.1922230000 	   -0.6068600000
C   	    1.3002100000 	    0.7127530000 	    0.0045130000
C   	    0.0243000000 	    0.6777490000 	   -0.8729570000
C   	   -1.0894820000 	    1.5136630000 	   -0.2707720000
O   	   -2.1612700000 	    0.8389720000 	    0.2057490000
C   	   -2.0899270000 	   -0.5625170000 	    0.4438490000
C   	   -1.3447280000 	   -0.8428140000 	    1.7378830000
C   	   -3.5185670000 	   -1.0598880000 	    0.4523020000
O   	   -1.4527840000 	   -1.2505840000 	   -0.6502430000
O   	   -1.0834380000 	    2.7096100000 	   -0.2911580000
C   	   -0.3408690000 	   -0.7563120000 	   -1.2068680000
O   	    0.3228270000 	   -1.4247930000 	   -1.9596780000
O   	    1.2928790000 	    1.1811130000 	    1.1299320000
H   	    4.6114350000 	   -1.2711100000 	    1.5446450000
H   	    3.4691160000 	   -2.1041720000 	    0.4724550000
H   	    2.8660490000 	   -1.0787520000 	    1.7950810000
H   	    4.4390630000 	   -0.0335910000 	   -0.6324480000
H   	    3.8000530000 	    0.9488520000 	    0.6900630000
H   	    2.2278590000 	   -0.3484030000 	   -1.4490530000
H   	    0.2794300000 	    1.1567210000 	   -1.8235720000
H   	   -1.9062240000 	   -0.4154230000 	    2.5729260000
H   	   -0.3510320000 	   -0.3855390000 	    1.7374590000
H   	   -1.2529750000 	   -1.9224170000 	    1.8837430000
H   	   -4.0756810000 	   -0.5561160000 	    1.2457370000
H   	   -3.5340860000 	   -2.1386750000 	    0.6263670000
H   	   -3.9881820000 	   -0.8432120000 	   -0.5099440000
