17
tauto -472.16252854
C   	    3.3933480000 	   -0.2089670000 	    0.2983210000
C   	    1.9849900000 	    0.3160190000 	    0.1339940000
O   	    1.1723250000 	   -0.8093880000 	   -0.2748530000
C   	   -0.1465860000 	   -0.8059140000 	   -0.1601370000
N   	   -0.6465280000 	   -2.0504700000 	   -0.2383440000
C   	   -0.9757650000 	    0.2987870000 	    0.0099540000
C   	   -0.5610580000 	    1.6526820000 	   -0.1310610000
N   	   -0.2384130000 	    2.7608700000 	   -0.2534180000
C   	   -2.3618880000 	    0.0307000000 	    0.2064390000
N   	   -3.4703870000 	   -0.2804130000 	    0.3587240000
H   	    4.0555240000 	    0.6118350000 	    0.5895330000
H   	    3.7608440000 	   -0.6322460000 	   -0.6408170000
H   	    3.4348020000 	   -0.9806220000 	    1.0722180000
H   	    1.9267990000 	    1.0914030000 	   -0.6327250000
H   	    1.5860620000 	    0.7167010000 	    1.0706940000
H   	   -0.0110270000 	   -2.8314850000 	   -0.2442960000
H   	   -1.6425460000 	   -2.2102330000 	   -0.2295790000
