25
tauto -593.711297939
C   	   -3.8734270000 	    1.1882820000 	    0.0002850000
C   	   -3.5776650000 	   -0.3028280000 	   -0.0000090000
C   	   -2.2140370000 	   -0.8327710000 	   -0.0000680000
C   	   -0.9944630000 	   -0.2198090000 	   -0.0000120000
N   	    0.1381960000 	   -1.0216100000 	    0.0000140000
C   	    1.4484270000 	   -0.5881520000 	   -0.0000020000
C   	    2.5106080000 	   -1.5012700000 	    0.0000700000
C   	    3.8136490000 	   -1.0343110000 	    0.0000890000
C   	    4.0846420000 	    0.3385690000 	    0.0000390000
C   	    3.0336580000 	    1.2387510000 	   -0.0000260000
C   	    1.7066330000 	    0.7920560000 	   -0.0000460000
C   	    0.5611240000 	    1.6767140000 	   -0.0001240000
C   	   -0.7013640000 	    1.2106490000 	   -0.0001300000
O   	   -4.5161150000 	   -1.0887610000 	   -0.0001380000
H   	   -3.4593310000 	    1.6784350000 	   -0.8879420000
H   	   -3.4586700000 	    1.6781760000 	    0.8883660000
H   	   -4.9578530000 	    1.3112640000 	    0.0007270000
H   	   -2.2175080000 	   -1.9221030000 	   -0.0002160000
H   	   -0.0187450000 	   -2.0197060000 	   -0.0001000000
H   	    2.3058130000 	   -2.5697290000 	    0.0001310000
H   	    4.6333800000 	   -1.7478590000 	    0.0001470000
H   	    5.1110220000 	    0.6930950000 	    0.0000500000
H   	    3.2251890000 	    2.3098650000 	   -0.0000780000
H   	    0.7408250000 	    2.7497390000 	   -0.0002190000
H   	   -1.5292900000 	    1.9049000000 	   -0.0002730000
