21
tauto -533.257600795
C   	    4.8492930000 	    0.4519280000 	    0.0000600000
C   	    3.8257530000 	   -0.1896370000 	    0.0000290000
C   	    2.6315370000 	   -0.9633780000 	    0.0000150000
C   	    1.3910600000 	   -0.4163440000 	   -0.0000790000
N   	    0.2384040000 	   -1.1758430000 	   -0.0001350000
C   	   -1.0290450000 	   -0.6197110000 	   -0.0000430000
C   	   -2.1810970000 	   -1.4093680000 	    0.0000130000
C   	   -3.4277100000 	   -0.8009340000 	    0.0001180000
C   	   -3.5441040000 	    0.5909300000 	    0.0001650000
C   	   -2.3981890000 	    1.3718590000 	    0.0000960000
C   	   -1.1344580000 	    0.7803570000 	   -0.0000120000
N   	    0.0048680000 	    1.5988840000 	   -0.0001030000
C   	    1.1540190000 	    1.0346520000 	   -0.0001530000
H   	    5.7547870000 	    1.0177890000 	    0.0000840000
H   	    2.7394300000 	   -2.0465230000 	    0.0000780000
H   	    0.3237050000 	   -2.1819050000 	   -0.0000850000
H   	   -2.0929330000 	   -2.4939590000 	   -0.0000370000
H   	   -4.3208410000 	   -1.4203130000 	    0.0001590000
H   	   -4.5245950000 	    1.0575380000 	    0.0002630000
H   	   -2.4456420000 	    2.4571370000 	    0.0001170000
H   	    2.0408340000 	    1.6668180000 	   -0.0001790000
