25
tauto -667.944359833
C   	   -4.1707910000 	   -0.9788120000 	    0.6782980000
C   	   -3.0498750000 	   -1.3389340000 	   -0.2775770000
O   	   -2.2984330000 	   -0.1709500000 	   -0.6590460000
C   	   -1.3671310000 	    0.2234400000 	    0.1991230000
C   	   -0.6360900000 	    1.4869640000 	   -0.2836150000
C   	    0.6966400000 	    1.7399150000 	    0.3916310000
C   	    1.6605190000 	    0.5974970000 	    0.1668010000
N   	    1.3655490000 	   -0.2195260000 	   -0.8471960000
C   	    2.2008340000 	   -1.2277190000 	   -1.1053960000
C   	    3.3614290000 	   -1.4668640000 	   -0.3817460000
C   	    3.6628980000 	   -0.6125540000 	    0.6746050000
C   	    2.7982330000 	    0.4350160000 	    0.9576560000
O   	   -1.1452110000 	    2.2358020000 	   -1.0779650000
O   	   -1.1124750000 	   -0.2979760000 	    1.2610030000
H   	   -4.7708930000 	   -1.8679230000 	    0.8986350000
H   	   -4.8243080000 	   -0.2201190000 	    0.2375220000
H   	   -3.7633500000 	   -0.5967910000 	    1.6181710000
H   	   -3.4349360000 	   -1.7314690000 	   -1.2210280000
H   	   -2.3650570000 	   -2.0660610000 	    0.1673320000
H   	    0.5267720000 	    1.8823600000 	    1.4652910000
H   	    1.0975130000 	    2.6715600000 	   -0.0206540000
H   	    1.9223950000 	   -1.8733940000 	   -1.9365340000
H   	    4.0078880000 	   -2.3005630000 	   -0.6382690000
H   	    4.5587980000 	   -0.7637460000 	    1.2713830000
H   	    2.9952920000 	    1.1201280000 	    1.7779040000
