30
tauto -837.570198746
C   	    6.0518410000 	   -0.4783820000 	    1.0103670000
C   	    5.5667910000 	   -0.0099750000 	   -0.3483820000
O   	    4.2553750000 	    0.5751840000 	   -0.2591710000
C   	    3.2369150000 	   -0.2774080000 	   -0.2400160000
C   	    1.8808090000 	    0.4641470000 	   -0.1461140000
C   	    0.7492060000 	   -0.4312940000 	   -0.1399390000
C   	   -0.5612570000 	   -0.0406860000 	   -0.0710150000
N   	   -1.5669460000 	   -0.9687510000 	   -0.0689710000
C   	   -2.9104600000 	   -0.6449230000 	   -0.0018620000
C   	   -3.9080530000 	   -1.6244950000 	   -0.0003860000
C   	   -5.2355460000 	   -1.2375490000 	    0.0684350000
C   	   -5.5852950000 	    0.1167900000 	    0.1358720000
C   	   -4.5946360000 	    1.0823000000 	    0.1341650000
C   	   -3.2462690000 	    0.7145700000 	    0.0656750000
N   	   -2.2642960000 	    1.7045300000 	    0.0663460000
C   	   -1.0299210000 	    1.3534220000 	    0.0039810000
O   	    1.8760120000 	    1.6845250000 	   -0.0869470000
O   	    3.3388630000 	   -1.4835070000 	   -0.2943740000
H   	    7.0784630000 	   -0.8508840000 	    0.9298480000
H   	    5.4200550000 	   -1.2886140000 	    1.3839510000
H   	    6.0378640000 	    0.3460620000 	    1.7294990000
H   	    5.5370120000 	   -0.8355470000 	   -1.0648270000
H   	    6.1932670000 	    0.7923580000 	   -0.7439140000
H   	    0.9808290000 	   -1.4909130000 	   -0.1963980000
H   	   -1.3094540000 	   -1.9455580000 	   -0.1179530000
H   	   -3.6368000000 	   -2.6767380000 	   -0.0533640000
H   	   -6.0117420000 	   -1.9978810000 	    0.0699830000
H   	   -6.6306860000 	    0.4055080000 	    0.1899970000
H   	   -4.8249340000 	    2.1424370000 	    0.1860150000
H   	   -0.2619180000 	    2.1205950000 	    0.0048040000
