31
tauto -821.541419923
C   	   -6.0537410000 	   -0.5239350000 	    1.0161960000
C   	   -5.5774920000 	   -0.0523770000 	   -0.3448600000
O   	   -4.2769840000 	    0.5534230000 	   -0.2596710000
C   	   -3.2435340000 	   -0.2843870000 	   -0.2401560000
C   	   -1.8989470000 	    0.4782660000 	   -0.1497890000
C   	   -0.7579640000 	   -0.3942390000 	   -0.1455230000
C   	    0.5477220000 	    0.0317560000 	   -0.0743420000
N   	    1.5589910000 	   -0.8987800000 	   -0.0747320000
C   	    2.9110150000 	   -0.6196070000 	   -0.0052300000
C   	    3.8607130000 	   -1.6497090000 	   -0.0098920000
C   	    5.2055990000 	   -1.3364770000 	    0.0618150000
C   	    5.6277990000 	   -0.0027090000 	    0.1384860000
C   	    4.6885740000 	    1.0111590000 	    0.1424310000
C   	    3.3181320000 	    0.7220520000 	    0.0709080000
C   	    2.2860020000 	    1.7338630000 	    0.0716220000
C   	    0.9775350000 	    1.4178300000 	    0.0037250000
O   	   -1.9197460000 	    1.7016150000 	   -0.0908600000
O   	   -3.3328840000 	   -1.4918200000 	   -0.2921640000
H   	   -7.0743640000 	   -0.9135580000 	    0.9391550000
H   	   -6.0514910000 	    0.3032430000 	    1.7324260000
H   	   -5.4074950000 	   -1.3219500000 	    1.3912910000
H   	   -6.2186600000 	    0.7378000000 	   -0.7419480000
H   	   -5.5369880000 	   -0.8804040000 	   -1.0580720000
H   	   -0.9665060000 	   -1.4582510000 	   -0.2029440000
H   	    1.2850420000 	   -1.8706190000 	   -0.1276460000
H   	    3.5350990000 	   -2.6860720000 	   -0.0697210000
H   	    5.9403870000 	   -2.1370050000 	    0.0585180000
H   	    6.6868900000 	    0.2302570000 	    0.1953270000
H   	    5.0003120000 	    2.0517390000 	    0.2020810000
H   	    2.5895850000 	    2.7769940000 	    0.1298490000
H   	    0.1936920000 	    2.1646410000 	    0.0040220000
