21
tauto -533.328643739
N   	   -4.8252600000 	    0.4350850000 	   -0.0001080000
C   	   -3.8533130000 	   -0.2021570000 	   -0.0000290000
C   	   -2.6559000000 	   -0.9635610000 	   -0.0000380000
C   	   -1.4327640000 	   -0.3603950000 	    0.0000740000
N   	   -0.2758860000 	   -1.1087630000 	   -0.0000520000
C   	    1.0093820000 	   -0.5924890000 	   -0.0000170000
C   	    2.1230270000 	   -1.4398050000 	    0.0000350000
C   	    3.3962730000 	   -0.8956790000 	    0.0000080000
C   	    3.5821690000 	    0.4906520000 	   -0.0000940000
C   	    2.4784510000 	    1.3257880000 	   -0.0000770000
C   	    1.1802610000 	    0.8013100000 	   -0.0000030000
C   	   -0.0129090000 	    1.6252910000 	    0.0000890000
C   	   -1.2430110000 	    1.0834570000 	    0.0001090000
H   	   -2.7494680000 	   -2.0451790000 	   -0.0000950000
H   	   -0.3733420000 	   -2.1142200000 	    0.0004020000
H   	    1.9822120000 	   -2.5186810000 	    0.0001880000
H   	    4.2577000000 	   -1.5581960000 	    0.0000930000
H   	    4.5848290000 	    0.9074200000 	   -0.0002270000
H   	    2.6058690000 	    2.4062590000 	   -0.0000990000
H   	    0.1078840000 	    2.7061810000 	    0.0002850000
H   	   -2.1376620000 	    1.6976870000 	    0.0002290000
