20
tauto -549.358314707
N   	    4.7760630000 	    0.5142930000 	    0.0001000000
C   	    3.8221230000 	   -0.1480810000 	    0.0001080000
C   	    2.6517070000 	   -0.9545990000 	    0.0000710000
C   	    1.4071720000 	   -0.4078760000 	    0.0000070000
N   	    0.2657330000 	   -1.1681600000 	   -0.0002720000
C   	   -1.0079120000 	   -0.6198390000 	   -0.0001010000
C   	   -2.1530370000 	   -1.4192210000 	   -0.0000070000
C   	   -3.4017510000 	   -0.8175730000 	    0.0001130000
C   	   -3.5260960000 	    0.5751440000 	    0.0001110000
C   	   -2.3877460000 	    1.3641550000 	    0.0000280000
C   	   -1.1195770000 	    0.7781260000 	   -0.0000640000
N   	    0.0139910000 	    1.5987560000 	   -0.0000660000
C   	    1.1678020000 	    1.0444330000 	   -0.0001040000
H   	    2.7907970000 	   -2.0316210000 	    0.0000080000
H   	    0.3552460000 	   -2.1745250000 	    0.0003290000
H   	   -2.0582130000 	   -2.5030910000 	    0.0000050000
H   	   -4.2917310000 	   -1.4411110000 	    0.0002030000
H   	   -4.5098760000 	    1.0344910000 	    0.0001800000
H   	   -2.4420480000 	    2.4489240000 	    0.0000470000
H   	    2.0492090000 	    1.6847020000 	   -0.0000760000
