24
tauto -609.741887664
C   	    3.8153280000 	    1.2326480000 	    0.0003570000
C   	    3.5608470000 	   -0.2643470000 	    0.0001620000
C   	    2.2096010000 	   -0.8413850000 	    0.0000390000
C   	    0.9708930000 	   -0.2782970000 	   -0.0001800000
N   	   -0.1480750000 	   -1.0894000000 	   -0.0003520000
C   	   -1.4472530000 	   -0.6200330000 	   -0.0001330000
C   	   -2.5479740000 	   -1.4819020000 	    0.0000260000
C   	   -3.8274570000 	   -0.9495290000 	    0.0002370000
C   	   -4.0305590000 	    0.4344370000 	    0.0002720000
C   	   -2.9378190000 	    1.2851330000 	    0.0000970000
C   	   -1.6397040000 	    0.7687600000 	   -0.0001000000
N   	   -0.5513150000 	    1.6443890000 	   -0.0002800000
C   	    0.6343270000 	    1.1572990000 	   -0.0003430000
O   	    4.5153240000 	   -1.0278230000 	    0.0000400000
H   	    3.3888110000 	    1.7115020000 	   -0.8879260000
H   	    4.8959230000 	    1.3850350000 	    0.0009990000
H   	    3.3876460000 	    1.7116030000 	    0.8880120000
H   	    2.2535190000 	   -1.9299480000 	    0.0000360000
H   	   -0.0005360000 	   -2.0890920000 	   -0.0000760000
H   	   -2.3936460000 	   -2.5588220000 	    0.0000020000
H   	   -4.6811490000 	   -1.6220720000 	    0.0003750000
H   	   -5.0386610000 	    0.8378060000 	    0.0004330000
H   	   -3.0520700000 	    2.3653200000 	    0.0001080000
H   	    1.4519230000 	    1.8696240000 	   -0.0004620000
