24
tauto -704.820472991
C   	    3.7507150000 	    0.8180980000 	    0.8514960000
C   	    3.4424300000 	   -0.4728380000 	    0.1271330000
C   	    2.0623100000 	   -1.0337760000 	    0.0227360000
C   	    0.8488530000 	   -0.4690040000 	   -0.1241260000
N   	   -0.2956460000 	   -1.2476580000 	   -0.2253220000
C   	   -1.5746450000 	   -0.7294790000 	   -0.0724600000
C   	   -2.7078720000 	   -1.5327740000 	    0.0498220000
C   	   -3.9596460000 	   -0.9485320000 	    0.2019770000
C   	   -4.0942370000 	    0.4373000000 	    0.2358100000
C   	   -2.9678830000 	    1.2437860000 	    0.1104880000
C   	   -1.7252800000 	    0.6537080000 	   -0.0432560000
O   	   -0.6300140000 	    1.4835190000 	   -0.1997050000
C   	    0.6348810000 	    1.0076810000 	   -0.3074430000
O   	    1.5204860000 	    1.7793980000 	   -0.5501430000
O   	    4.3476220000 	   -1.1600590000 	   -0.3096940000
H   	    2.9600310000 	    1.1211690000 	    1.5408250000
H   	    3.8875460000 	    1.6218960000 	    0.1245360000
H   	    4.6898190000 	    0.6728470000 	    1.3916860000
H   	    2.0897960000 	   -2.1235450000 	    0.0225340000
H   	   -0.1799140000 	   -2.2472000000 	   -0.1418690000
H   	   -2.6003050000 	   -2.6148730000 	    0.0256190000
H   	   -4.8354340000 	   -1.5840300000 	    0.2964850000
H   	   -5.0726430000 	    0.8919740000 	    0.3559750000
H   	   -3.0318890000 	    2.3274780000 	    0.1247350000
