31
tauto -871.831082643
C   	   -4.5175830000 	    1.1582960000 	   -0.1418440000
C   	   -4.2335960000 	    0.1748200000 	    0.9779590000
O   	   -2.9037090000 	   -0.3621690000 	    0.8786790000
C   	   -2.7214990000 	   -1.3182580000 	   -0.0378410000
C   	   -1.3072170000 	   -1.7372290000 	   -0.1662400000
C   	   -0.1995330000 	   -0.9740600000 	   -0.1856580000
N   	    1.0602130000 	   -1.5692930000 	   -0.2850720000
C   	    2.2736320000 	   -0.9298820000 	   -0.0775690000
C   	    3.4693480000 	   -1.6465310000 	    0.0099230000
C   	    4.6688690000 	   -0.9819420000 	    0.2214450000
C   	    4.6979010000 	    0.4047770000 	    0.3542130000
C   	    3.5153220000 	    1.1280460000 	    0.2669610000
C   	    2.3160550000 	    0.4636080000 	    0.0457630000
N   	    1.0787140000 	    1.1296080000 	   -0.0888430000
C   	   -0.1316780000 	    0.4937650000 	   -0.2157580000
N   	   -1.0789820000 	    1.3700840000 	   -0.4341460000
N   	   -0.5030090000 	    2.6064590000 	   -0.4372190000
C   	    0.7779690000 	    2.4498710000 	   -0.2348360000
O   	   -3.6171170000 	   -1.8610940000 	   -0.6486070000
H   	   -5.4953240000 	    1.6267680000 	    0.0161930000
H   	   -4.5328660000 	    0.6422110000 	   -1.1056070000
H   	   -3.7462040000 	    1.9318140000 	   -0.1739720000
H   	   -4.9490930000 	   -0.6524660000 	    0.9761800000
H   	   -4.2502380000 	    0.6644820000 	    1.9545290000
H   	   -1.1912500000 	   -2.8091910000 	   -0.3090990000
H   	    1.0749960000 	   -2.5785800000 	   -0.2830890000
H   	    3.4494630000 	   -2.7294270000 	   -0.0890320000
H   	    5.5899180000 	   -1.5538790000 	    0.2877240000
H   	    5.6364600000 	    0.9221350000 	    0.5258640000
H   	    3.5241660000 	    2.2089740000 	    0.3740320000
H   	    1.5100730000 	    3.2435820000 	   -0.1964480000
