28
tauto -724.27535558
C   	   -5.4125050000 	    0.2417390000 	    1.0027700000
C   	   -4.9420440000 	   -0.2539830000 	   -0.3524630000
O   	   -3.6567560000 	   -0.8836540000 	   -0.2649560000
C   	   -2.5895740000 	   -0.0511300000 	   -0.2494420000
C   	   -1.3564660000 	   -0.8243230000 	   -0.1616530000
C   	   -0.1044590000 	   -0.2928140000 	   -0.1129290000
N   	    1.0033680000 	   -1.1028610000 	   -0.0334560000
C   	    2.3004590000 	   -0.6239190000 	    0.0256820000
C   	    3.4021330000 	   -1.4800280000 	    0.1072760000
C   	    4.6777100000 	   -0.9416430000 	    0.1651630000
C   	    4.8725770000 	    0.4432410000 	    0.1426180000
C   	    3.7778230000 	    1.2873780000 	    0.0608120000
C   	    2.4826550000 	    0.7658860000 	    0.0010080000
N   	    1.3949120000 	    1.6392280000 	   -0.0821370000
C   	    0.2104430000 	    1.1490860000 	   -0.1352990000
O   	   -2.7062100000 	    1.1608310000 	   -0.3089470000
H   	   -6.4241080000 	    0.6536800000 	    0.9207660000
H   	   -4.7476080000 	    1.0283390000 	    1.3688100000
H   	   -5.4302080000 	   -0.5771030000 	    1.7288230000
H   	   -4.8894390000 	    0.5670380000 	   -1.0725480000
H   	   -5.6020370000 	   -1.0332660000 	   -0.7423340000
H   	   -1.4764410000 	   -1.9038830000 	   -0.1326290000
H   	    0.8606870000 	   -2.1031310000 	   -0.0145250000
H   	    3.2517550000 	   -2.5575250000 	    0.1253640000
H   	    5.5333190000 	   -1.6087450000 	    0.2283340000
H   	    5.8770890000 	    0.8530640000 	    0.1894940000
H   	    3.8869920000 	    2.3678680000 	    0.0401160000
H   	   -0.6367400000 	    1.8247460000 	   -0.2005550000
