29
tauto -708.245263386
C   	   -5.4397110000 	    0.1766080000 	    1.0054540000
C   	   -4.9577190000 	   -0.2953560000 	   -0.3546280000
O   	   -3.6627410000 	   -0.9000880000 	   -0.2730470000
C   	   -2.6086080000 	   -0.0449640000 	   -0.2496600000
C   	   -1.3641440000 	   -0.7882930000 	   -0.1681620000
C   	   -0.1234720000 	   -0.2196940000 	   -0.1156730000
N   	    0.9910600000 	   -1.0307080000 	   -0.0421400000
C   	    2.3021870000 	   -0.5965340000 	    0.0203320000
C   	    3.3601500000 	   -1.5107860000 	    0.0930650000
C   	    4.6624540000 	   -1.0459950000 	    0.1554040000
C   	    4.9334140000 	    0.3267240000 	    0.1465530000
C   	    3.8854910000 	    1.2276080000 	    0.0739950000
C   	    2.5585240000 	    0.7840360000 	    0.0097300000
C   	    1.4176990000 	    1.6736070000 	   -0.0679160000
C   	    0.1555520000 	    1.2111990000 	   -0.1282800000
O   	   -2.7568730000 	    1.1660530000 	   -0.2979840000
H   	   -6.4593000000 	    0.5697800000 	    0.9280490000
H   	   -4.7893760000 	    0.9713090000 	    1.3800190000
H   	   -5.4411230000 	   -0.6503440000 	    1.7226380000
H   	   -4.9223420000 	    0.5352230000 	   -1.0648950000
H   	   -5.6040050000 	   -1.0820740000 	   -0.7533390000
H   	   -1.4567530000 	   -1.8704750000 	   -0.1473200000
H   	    0.8315030000 	   -2.0283630000 	   -0.0326690000
H   	    3.1529860000 	   -2.5789340000 	    0.1002460000
H   	    5.4800350000 	   -1.7597920000 	    0.2115150000
H   	    5.9586800000 	    0.6812580000 	    0.1966450000
H   	    4.0788480000 	    2.2983100000 	    0.0659010000
H   	    1.6034380000 	    2.7456020000 	   -0.0772690000
H   	   -0.7040020000 	    1.8667890000 	   -0.1875710000
