32
tauto -838.797385195
C   	   -4.3385800000 	    1.4796170000 	    0.1927550000
C   	   -4.2824950000 	    0.2126300000 	    1.0253610000
O   	   -2.9807610000 	   -0.3927530000 	    0.9640350000
C   	   -2.7298150000 	   -1.1240180000 	   -0.1314050000
C   	   -1.3416420000 	   -1.6672650000 	   -0.1427840000
C   	   -0.2043030000 	   -0.9632730000 	   -0.2265080000
N   	    1.0419900000 	   -1.5700580000 	   -0.2734010000
C   	    2.2287220000 	   -0.8890420000 	   -0.0408480000
C   	    3.4262920000 	   -1.5719150000 	    0.1545020000
C   	    4.6063220000 	   -0.8739470000 	    0.3808210000
C   	    4.5908750000 	    0.5144870000 	    0.4170760000
C   	    3.3971170000 	    1.2030000000 	    0.2196530000
C   	    2.2092130000 	    0.5136730000 	   -0.0155910000
N   	    0.9895660000 	    1.1824050000 	   -0.2535140000
C   	    0.9931250000 	    2.6292520000 	   -0.4011840000
C   	   -0.2165330000 	    0.5313590000 	   -0.3894610000
O   	   -1.2508160000 	    1.1219470000 	   -0.6455970000
O   	   -3.5586150000 	   -1.4132020000 	   -0.9634240000
H   	   -5.3159280000 	    1.9597380000 	    0.3142550000
H   	   -4.1890830000 	    1.2476940000 	   -0.8645530000
H   	   -3.5573640000 	    2.1786420000 	    0.5032590000
H   	   -5.0273570000 	   -0.5150150000 	    0.6916720000
H   	   -4.4336010000 	    0.4223420000 	    2.0873490000
H   	   -1.2907390000 	   -2.7542450000 	   -0.1358720000
H   	    1.0643810000 	   -2.5756410000 	   -0.1868430000
H   	    3.4247770000 	   -2.6596630000 	    0.1267640000
H   	    5.5337050000 	   -1.4189810000 	    0.5312960000
H   	    5.5056900000 	    1.0710430000 	    0.5973630000
H   	    3.3982990000 	    2.2871260000 	    0.2501830000
H   	    1.2756650000 	    3.1127530000 	    0.5400810000
H   	   -0.0142360000 	    2.9358310000 	   -0.6757330000
H   	    1.6966500000 	    2.9266600000 	   -1.1852520000
