34
tauto -948.992801925
O   	    2.7336880000 	    2.3844420000 	   -1.3229430000
C   	    2.1507660000 	    1.6607500000 	   -0.5358890000
C   	    0.7330500000 	    1.9807010000 	   -0.1834590000
C   	   -0.3412280000 	    1.1748010000 	   -0.2386450000
N   	   -1.6208080000 	    1.6340040000 	    0.0831120000
C   	   -2.7417370000 	    0.8339040000 	    0.2538970000
C   	   -3.9368440000 	    1.3538800000 	    0.7565210000
C   	   -5.0434710000 	    0.5329260000 	    0.9223650000
C   	   -4.9789600000 	   -0.8196520000 	    0.5952350000
C   	   -3.7968990000 	   -1.3484100000 	    0.0926190000
C   	   -2.6919160000 	   -0.5256070000 	   -0.0812420000
N   	   -1.4662460000 	   -0.9862660000 	   -0.6100510000
C   	   -0.3403540000 	   -0.2118110000 	   -0.7128860000
N   	    0.6143860000 	   -0.8721800000 	   -1.3144930000
N   	    0.1295380000 	   -2.1136770000 	   -1.6077800000
C   	   -1.1068970000 	   -2.1671740000 	   -1.1893420000
C   	    2.8763200000 	    0.5554690000 	    0.1683900000
C   	    2.4116180000 	    0.0002250000 	    1.3605250000
C   	    3.1469200000 	   -0.9880800000 	    2.0056350000
C   	    4.3472720000 	   -1.4300280000 	    1.4576390000
C   	    4.8182680000 	   -0.8736370000 	    0.2698820000
C   	    4.0898160000 	    0.1215310000 	   -0.3672320000
H   	    0.5699140000 	    3.0340290000 	    0.0396530000
H   	   -1.6900610000 	    2.5912610000 	    0.3951000000
H   	   -3.9904250000 	    2.4085130000 	    1.0167910000
H   	   -5.9637920000 	    0.9545500000 	    1.3161640000
H   	   -5.8434060000 	   -1.4618190000 	    0.7309480000
H   	   -3.7315600000 	   -2.4023470000 	   -0.1621360000
H   	   -1.7672130000 	   -3.0165550000 	   -1.2898400000
H   	    1.4769210000 	    0.3507280000 	    1.7907810000
H   	    2.7824350000 	   -1.4147480000 	    2.9366540000
H   	    4.9188180000 	   -2.2082910000 	    1.9575240000
H   	    5.7557290000 	   -1.2185480000 	   -0.1586380000
H   	    4.4407020000 	    0.5758120000 	   -1.2890490000
