28
tauto -832.521285217
C   	    4.3839930000 	    0.5994780000 	    0.9092350000
O   	    3.1810140000 	   -0.1668600000 	    0.9257840000
C   	    3.0504380000 	   -1.0348750000 	   -0.0856120000
C   	    1.6869670000 	   -1.6128500000 	   -0.1568960000
C   	    0.5351080000 	   -0.9212190000 	   -0.1689470000
N   	   -0.6981020000 	   -1.5719710000 	   -0.2315020000
C   	   -1.9352330000 	   -0.9720510000 	   -0.0463820000
C   	   -3.1025830000 	   -1.7312180000 	    0.0631850000
C   	   -4.3280110000 	   -1.1078380000 	    0.2504840000
C   	   -4.4119120000 	    0.2801760000 	    0.3363380000
C   	   -3.2580340000 	    1.0458380000 	    0.2272960000
C   	   -2.0326750000 	    0.4225700000 	    0.0311810000
N   	   -0.8222230000 	    1.1341110000 	   -0.1187920000
C   	    0.4098910000 	    0.5414030000 	   -0.2274250000
N   	    1.3283920000 	    1.4460180000 	   -0.4549600000
N   	    0.7081560000 	    2.6609240000 	   -0.4842380000
C   	   -0.5677270000 	    2.4620550000 	   -0.2870870000
O   	    3.9541440000 	   -1.3618220000 	   -0.8206260000
H   	    4.3700330000 	    1.1908210000 	    1.8250520000
H   	    4.3852590000 	    1.2565650000 	    0.0353750000
H   	    5.2594750000 	   -0.0536490000 	    0.8826100000
H   	    1.6554500000 	   -2.6927140000 	   -0.2789830000
H   	   -0.6733100000 	   -2.5805240000 	   -0.2046930000
H   	   -3.0398130000 	   -2.8151750000 	    0.0003590000
H   	   -5.2259460000 	   -1.7132850000 	    0.3340960000
H   	   -5.3703360000 	    0.7662100000 	    0.4886030000
H   	   -3.3097390000 	    2.1285740000 	    0.2976940000
H   	   -1.3272440000 	    3.2302250000 	   -0.2671350000
