27
tauto -848.535004604
C   	   -4.4169140000 	    0.6457780000 	    0.8216600000
O   	   -3.1973390000 	   -0.0952270000 	    0.8591410000
C   	   -3.0708340000 	   -1.0242770000 	   -0.0953900000
C   	   -1.7072010000 	   -1.6028260000 	   -0.1403140000
C   	   -0.5491910000 	   -0.9206470000 	   -0.1313090000
N   	    0.6819460000 	   -1.5769290000 	   -0.1536910000
C   	    1.9279340000 	   -0.9795490000 	   -0.0130370000
C   	    3.0988100000 	   -1.7343610000 	    0.0889530000
C   	    4.3240660000 	   -1.0975540000 	    0.2270670000
C   	    4.4089540000 	    0.2944200000 	    0.2660210000
C   	    3.2543550000 	    1.0582820000 	    0.1640270000
C   	    2.0335150000 	    0.4137960000 	    0.0261240000
N   	    0.8141010000 	    1.1081060000 	   -0.1069160000
N   	    0.6823490000 	    2.4299650000 	   -0.2559970000
N   	   -0.5767370000 	    2.6435020000 	   -0.4342220000
N   	   -1.2824680000 	    1.4994540000 	   -0.4118600000
C   	   -0.4054640000 	    0.5404450000 	   -0.1967100000
O   	   -3.9759260000 	   -1.3974780000 	   -0.8061160000
H   	   -4.3796250000 	    1.3182750000 	    1.6784740000
H   	   -5.2765520000 	   -0.0251100000 	    0.8898280000
H   	   -4.4713640000 	    1.2192750000 	   -0.1072330000
H   	   -1.6785840000 	   -2.6839740000 	   -0.2497440000
H   	    0.6527380000 	   -2.5852950000 	   -0.1228700000
H   	    3.0406270000 	   -2.8198340000 	    0.0590420000
H   	    5.2263360000 	   -1.6972990000 	    0.3060230000
H   	    5.3720510000 	    0.7827100000 	    0.3747770000
H   	    3.2779800000 	    2.1431630000 	    0.1837540000
