25
tauto -684.973281151
C   	    3.8489530000 	    0.7510230000 	    0.8015130000
C   	    3.4682320000 	   -0.5072130000 	    0.0530870000
C   	    2.0728230000 	   -1.0296530000 	    0.0031270000
C   	    0.8647490000 	   -0.4351210000 	   -0.0638920000
N   	   -0.2938190000 	   -1.2021890000 	   -0.0867480000
C   	   -1.5901300000 	   -0.7096260000 	   -0.0150730000
C   	   -2.6992060000 	   -1.5483120000 	    0.0771650000
C   	   -3.9783130000 	   -1.0083300000 	    0.1458320000
C   	   -4.1599990000 	    0.3713740000 	    0.1241120000
C   	   -3.0564240000 	    1.2128370000 	    0.0322310000
C   	   -1.7770340000 	    0.6754800000 	   -0.0388880000
N   	   -0.6365470000 	    1.4802310000 	   -0.1488580000
C   	    0.6610110000 	    1.0471930000 	   -0.2193320000
O   	    1.5739650000 	    1.8272250000 	   -0.4104160000
O   	    4.3358230000 	   -1.2023170000 	   -0.4464280000
H   	    3.0961030000 	    1.0589860000 	    1.5290730000
H   	    3.9803970000 	    1.5712140000 	    0.0923600000
H   	    4.8045060000 	    0.5591790000 	    1.2971130000
H   	    2.0754650000 	   -2.1194330000 	   -0.0296890000
H   	   -0.1745360000 	   -2.2023730000 	   -0.0169850000
H   	   -2.5530940000 	   -2.6261850000 	    0.0945310000
H   	   -4.8349330000 	   -1.6722410000 	    0.2171630000
H   	   -5.1576890000 	    0.7961260000 	    0.1789520000
H   	   -3.1836070000 	    2.2929920000 	    0.0135280000
H   	   -0.7463250000 	    2.4782490000 	   -0.2713280000
