33
tauto -985.126133033
C   	    6.2297680000 	   -1.1176320000 	    1.0410460000
C   	    5.9166300000 	   -0.5173670000 	   -0.3169830000
O   	    4.8198780000 	    0.4060790000 	   -0.2399760000
C   	    3.5881770000 	   -0.1301410000 	   -0.2430790000
C   	    2.5475810000 	    0.8763710000 	   -0.1501010000
C   	    1.2347560000 	    0.5268640000 	   -0.1265360000
C   	    0.2078260000 	    1.6103470000 	   -0.0202870000
O   	    0.4924920000 	    2.7787320000 	    0.0371760000
N   	    0.7740550000 	   -0.7513820000 	   -0.1939150000
N   	   -0.5203190000 	   -1.1424920000 	   -0.1527870000
C   	   -1.4173910000 	   -0.2303080000 	   -0.0553960000
N   	   -1.1190460000 	    1.1432420000 	    0.0088890000
N   	   -2.0631330000 	    2.1384380000 	    0.1069200000
C   	   -3.2926540000 	    1.7872350000 	    0.1450700000
C   	   -3.7830400000 	    0.4180200000 	    0.0957830000
C   	   -2.8353730000 	   -0.6027420000 	   -0.0050980000
C   	   -3.2470410000 	   -1.9369720000 	   -0.0539850000
C   	   -4.5992380000 	   -2.2348220000 	   -0.0015920000
C   	   -5.5515990000 	   -1.2147130000 	    0.0992540000
C   	   -5.1456960000 	    0.1083510000 	    0.1475800000
O   	    3.3939240000 	   -1.3409920000 	   -0.3190860000
H   	    7.1188290000 	   -1.7537040000 	    0.9731630000
H   	    5.3930560000 	   -1.7293280000 	    1.3884470000
H   	    6.4242140000 	   -0.3293950000 	    1.7749030000
H   	    5.6764890000 	   -1.2957350000 	   -1.0461060000
H   	    6.7498280000 	    0.0829050000 	   -0.6903070000
H   	    2.8071140000 	    1.9247330000 	   -0.0927080000
H   	    1.4708120000 	   -1.4877740000 	   -0.2670810000
H   	   -4.0028400000 	    2.6085970000 	    0.2217800000
H   	   -2.4983240000 	   -2.7186240000 	   -0.1316500000
H   	   -4.9220670000 	   -3.2716520000 	   -0.0391930000
H   	   -6.6088990000 	   -1.4609240000 	    0.1401670000
H   	   -5.8757040000 	    0.9107540000 	    0.2258520000
