25
tauto -647.120107348
C   	    4.3924770000 	   -0.3450540000 	    0.8945200000
C   	    3.8957540000 	    0.1480980000 	   -0.4521170000
O   	    2.6342360000 	    0.8205250000 	   -0.3324230000
C   	    1.5433090000 	    0.0360810000 	   -0.2676840000
C   	    0.3195310000 	    0.8086130000 	   -0.1414240000
C   	   -0.8918020000 	    0.2061110000 	   -0.0399800000
N   	   -1.1046530000 	   -1.1369950000 	   -0.1158170000
C   	   -2.3474190000 	   -1.7272770000 	    0.3330050000
C   	   -3.5040440000 	   -0.9237530000 	   -0.2339220000
N   	   -3.3122060000 	    0.4724330000 	    0.1185690000
C   	   -2.1039210000 	    1.1046670000 	    0.1192090000
O   	   -1.9984620000 	    2.3098990000 	    0.2554670000
O   	    1.6113850000 	   -1.1891820000 	   -0.3107300000
H   	    5.3900560000 	   -0.7845580000 	    0.7876490000
H   	    3.7182250000 	   -1.1090850000 	    1.2901560000
H   	    4.4530260000 	    0.4815920000 	    1.6091290000
H   	    3.7941510000 	   -0.6786740000 	   -1.1603790000
H   	    4.5663260000 	    0.9020320000 	   -0.8719020000
H   	    0.3667880000 	    1.8888920000 	   -0.1096720000
H   	   -0.2522600000 	   -1.6903620000 	   -0.1273500000
H   	   -2.4181460000 	   -1.7492750000 	    1.4311880000
H   	   -2.3956180000 	   -2.7569780000 	   -0.0319130000
H   	   -4.4485180000 	   -1.2682750000 	    0.1975560000
H   	   -3.5522330000 	   -1.0579900000 	   -1.3234480000
H   	   -4.1043790000 	    1.0997520000 	    0.1215670000
