24
tauto -666.972375483
C   	    4.4079260000 	   -0.2796190000 	    0.8695190000
C   	    3.8783230000 	    0.1181160000 	   -0.4956950000
O   	    2.6173670000 	    0.7966860000 	   -0.3909570000
C   	    1.5305480000 	    0.0190100000 	   -0.2544320000
C   	    0.3076570000 	    0.7981970000 	   -0.1492020000
C   	   -0.8996270000 	    0.1933130000 	   -0.0078540000
N   	   -1.1041500000 	   -1.1487660000 	    0.0099120000
C   	   -2.3975120000 	   -1.7001350000 	    0.3366210000
C   	   -3.4442400000 	   -0.8474230000 	   -0.3438290000
O   	   -3.3308070000 	    0.5178240000 	    0.0725700000
C   	   -2.1122350000 	    1.0926100000 	    0.1306400000
O   	   -2.0186530000 	    2.2757900000 	    0.3169010000
O   	    1.5943950000 	   -1.2067050000 	   -0.2255620000
H   	    5.4032330000 	   -0.7254750000 	    0.7688910000
H   	    3.7455500000 	   -1.0144680000 	    1.3345130000
H   	    4.4847930000 	    0.5949100000 	    1.5228420000
H   	    3.7599430000 	   -0.7556590000 	   -1.1419750000
H   	    4.5355400000 	    0.8418950000 	   -0.9836410000
H   	    0.3573030000 	    1.8784120000 	   -0.1653160000
H   	   -0.2588240000 	   -1.7120540000 	    0.0203190000
H   	   -2.5779530000 	   -1.7227250000 	    1.4216720000
H   	   -2.4559410000 	   -2.7259350000 	   -0.0391670000
H   	   -4.4574220000 	   -1.1501210000 	   -0.0729280000
H   	   -3.3306340000 	   -0.9005810000 	   -1.4328280000
