26
tauto -847.641989157
C   	   -3.2206960000 	   -2.2004740000 	    0.0121670000
C   	   -3.7753820000 	   -0.7855400000 	    0.0024700000
C   	   -2.8808440000 	    0.3882090000 	   -0.0007810000
C   	   -1.5352280000 	    0.4690850000 	   -0.0022080000
N   	   -0.6354980000 	   -0.5889490000 	   -0.0014450000
C   	    0.7298640000 	   -0.4428850000 	   -0.0036440000
N   	    1.4581030000 	   -1.5966610000 	   -0.0130200000
C   	    2.7529840000 	   -1.4506940000 	    0.0008990000
N   	    3.5602150000 	   -2.5536320000 	    0.0580940000
N   	    3.3681750000 	   -0.2328530000 	    0.0065400000
C   	    2.6784990000 	    0.9961550000 	    0.0022780000
O   	    3.2794670000 	    2.0583660000 	    0.0138100000
C   	    1.2601660000 	    0.8134140000 	   -0.0080130000
N   	    0.4215490000 	    1.9297730000 	   -0.0072470000
C   	   -0.9402770000 	    1.8697300000 	   -0.0049060000
O   	   -1.6405380000 	    2.8629380000 	   -0.0047800000
O   	   -4.9814250000 	   -0.6137640000 	   -0.0021190000
H   	   -2.6129360000 	   -2.3953370000 	   -0.8807110000
H   	   -4.0606660000 	   -2.8970080000 	    0.0178910000
H   	   -2.6105920000 	   -2.3826860000 	    0.9060470000
H   	   -3.3984880000 	    1.3414660000 	   -0.0027880000
H   	   -0.9698300000 	   -1.5406140000 	    0.0014820000
H   	    3.0696490000 	   -3.4219420000 	   -0.1009950000
H   	    4.4742590000 	   -2.5004660000 	   -0.3662560000
H   	    4.3742400000 	   -0.1557300000 	    0.0852430000
H   	    0.8520080000 	    2.8462540000 	   -0.0052200000
