20
tauto -532.325715747
C   	   -3.3246610000 	   -0.4519190000 	    0.0447230000
C   	   -1.8493720000 	   -0.7174750000 	    0.0422720000
O   	   -1.5034810000 	   -2.0241570000 	    0.1182900000
C   	   -0.8876130000 	    0.2338060000 	   -0.0254950000
C   	    0.5863680000 	    0.0355270000 	   -0.0147440000
N   	    1.2856840000 	    1.1675100000 	    0.1450890000
C   	    2.6131570000 	    1.0973700000 	    0.1657360000
C   	    3.3250650000 	   -0.0890880000 	    0.0273540000
C   	    2.5991780000 	   -1.2601730000 	   -0.1472450000
C   	    1.2114580000 	   -1.2074230000 	   -0.1707450000
C   	   -1.3397180000 	    1.5995300000 	   -0.0899440000
N   	   -1.7764530000 	    2.6712230000 	   -0.1502670000
H   	   -3.7953300000 	   -0.9557120000 	   -0.8087300000
H   	   -3.5471290000 	    0.6130580000 	   -0.0170660000
H   	   -3.7733750000 	   -0.8481740000 	    0.9642450000
H   	   -2.3024550000 	   -2.5622250000 	    0.1879110000
H   	    3.1335500000 	    2.0446240000 	    0.2989150000
H   	    4.4106130000 	   -0.0890530000 	    0.0519550000
H   	    3.1062880000 	   -2.2141640000 	   -0.2684950000
H   	    0.6279030000 	   -2.1071590000 	   -0.3102800000
