20
tauto -532.352077536
C   	   -3.2772970000 	   -0.7092130000 	    0.0016100000
C   	   -1.7797250000 	   -0.9128720000 	   -0.0016650000
C   	   -0.9344120000 	    0.2582380000 	   -0.0010140000
C   	   -1.5196230000 	    1.5557370000 	   -0.0004480000
N   	   -1.9821590000 	    2.6219870000 	   -0.0002020000
C   	    0.4746780000 	    0.1720160000 	   -0.0002320000
N   	    1.0628640000 	   -1.0569540000 	    0.0001550000
C   	    2.4037040000 	   -1.2575160000 	    0.0006900000
C   	    3.2651920000 	   -0.2033850000 	    0.0007210000
C   	    2.7101160000 	    1.1025320000 	    0.0001610000
C   	    1.3576620000 	    1.2925190000 	   -0.0002160000
O   	   -1.3184390000 	   -2.0677830000 	   -0.0018010000
H   	   -3.5905590000 	   -0.1836660000 	    0.9102320000
H   	   -3.7655770000 	   -1.6836320000 	   -0.0464110000
H   	   -3.5889620000 	   -0.0927010000 	   -0.8480400000
H   	    0.3751870000 	   -1.8314750000 	   -0.0001040000
H   	    2.7205180000 	   -2.2947160000 	    0.0010090000
H   	    4.3363020000 	   -0.3662870000 	    0.0010980000
H   	    3.3714740000 	    1.9648220000 	   -0.0000170000
H   	    0.9224230000 	    2.2863550000 	   -0.0006710000
