31
tauto -784.462010621
O   	    1.1812660000 	   -2.2587830000 	   -0.1079400000
C   	    1.9757870000 	   -1.2991830000 	   -0.0838340000
C   	    3.4526820000 	   -1.6506750000 	   -0.0910550000
C   	    4.3268530000 	   -0.5830880000 	    0.5473060000
C   	    4.0508620000 	    0.7490270000 	   -0.1318010000
C   	    2.5830540000 	    1.1574520000 	   -0.0950450000
O   	    2.3340550000 	    2.3597240000 	   -0.1161720000
C   	    1.5678100000 	    0.0943430000 	   -0.0668190000
C   	    0.1764650000 	    0.4173150000 	   -0.0371560000
N   	   -0.7278100000 	   -0.5876510000 	   -0.0474470000
C   	   -2.0938860000 	   -0.4385710000 	   -0.0120640000
C   	   -2.9315200000 	   -1.5688010000 	   -0.0265580000
C   	   -4.2969930000 	   -1.3939990000 	    0.0105820000
C   	   -4.8588190000 	   -0.1037890000 	    0.0629500000
C   	   -4.0391930000 	    1.0021710000 	    0.0764450000
C   	   -2.6384470000 	    0.8533290000 	    0.0387980000
C   	   -1.7127180000 	    1.9473510000 	    0.0486450000
C   	   -0.3718350000 	    1.7531250000 	    0.0116020000
H   	    3.7449950000 	   -1.7930760000 	   -1.1418490000
H   	    3.5463490000 	   -2.6254590000 	    0.3959750000
H   	    5.3858710000 	   -0.8498380000 	    0.4605820000
H   	    4.1023250000 	   -0.5090330000 	    1.6192680000
H   	    4.3442320000 	    0.6921620000 	   -1.1906270000
H   	    4.6146840000 	    1.5757130000 	    0.3088820000
H   	   -0.2920300000 	   -1.5277720000 	   -0.0835960000
H   	   -2.4914100000 	   -2.5619460000 	   -0.0670840000
H   	   -4.9485130000 	   -2.2635890000 	   -0.0002620000
H   	   -5.9380180000 	    0.0147460000 	    0.0927230000
H   	   -4.4599180000 	    2.0044210000 	    0.1168610000
H   	   -2.1083050000 	    2.9603550000 	    0.0877540000
H   	    0.3312230000 	    2.5732970000 	    0.0144090000
