16
tauto -471.939498863
N   	    2.6580170000 	   -2.1887590000 	   -0.0002020000
C   	    2.0657590000 	   -1.1899320000 	   -0.0000780000
C   	    1.2880620000 	   -0.0009780000 	    0.0000190000
C   	    1.8958620000 	    1.2819370000 	    0.0000680000
N   	    2.2521510000 	    2.3891040000 	    0.0002130000
C   	   -0.1052730000 	   -0.0708570000 	    0.0000050000
N   	   -0.8432930000 	    1.0829980000 	   -0.0001700000
C   	   -2.2080250000 	    1.1200570000 	   -0.0001850000
C   	   -2.9299970000 	   -0.0271680000 	   -0.0000090000
C   	   -2.2173230000 	   -1.2622490000 	    0.0001820000
C   	   -0.8569640000 	   -1.2901460000 	    0.0001540000
H   	   -0.3275870000 	    1.9578260000 	   -0.0000810000
H   	   -2.6463340000 	    2.1115330000 	   -0.0003940000
H   	   -4.0126320000 	    0.0044350000 	   -0.0000840000
H   	   -2.7700110000 	   -2.1975820000 	    0.0004500000
H   	   -0.3041760000 	   -2.2235950000 	    0.0002920000
