22
tauto -645.547401386
O   	   -3.9620090000 	   -0.2659440000 	   -0.1646840000
N   	   -2.7736790000 	   -0.4006650000 	    0.1153200000
C   	   -1.9497010000 	    0.7160660000 	   -0.1617550000
C   	   -0.5829770000 	    0.8602310000 	   -0.1083760000
N   	   -0.1707200000 	    2.1781750000 	   -0.1662690000
C   	    1.1174820000 	    2.6245590000 	    0.0139920000
C   	    2.1235300000 	    1.7585950000 	    0.2007740000
C   	    1.8444490000 	    0.3434150000 	    0.1237470000
C   	    0.5189670000 	   -0.1191240000 	   -0.0707480000
C   	    0.3181380000 	   -1.4914270000 	   -0.3080740000
C   	    1.3751360000 	   -2.3794460000 	   -0.2854810000
C   	    2.6730830000 	   -1.9271550000 	   -0.0249680000
C   	    2.9016850000 	   -0.5812580000 	    0.1686510000
O   	   -2.3209650000 	   -1.4088560000 	    0.6556200000
H   	   -2.5640110000 	    1.5827710000 	   -0.3708350000
H   	   -0.9009120000 	    2.8738170000 	   -0.2069260000
H   	    1.2379830000 	    3.7019110000 	   -0.0037220000
H   	    3.1397490000 	    2.1080460000 	    0.3447000000
H   	   -0.6787960000 	   -1.8618640000 	   -0.4942580000
H   	    1.1904990000 	   -3.4338700000 	   -0.4689540000
H   	    3.5009770000 	   -2.6307910000 	    0.0062260000
H   	    3.9103520000 	   -0.2109290000 	    0.3363510000
