21
tauto -661.563313108
O   	   -3.9711070000 	   -0.2655930000 	   -0.1906200000
N   	   -2.7865250000 	   -0.4184780000 	    0.0883480000
C   	   -1.9562910000 	    0.7083750000 	   -0.1250410000
C   	   -0.5913330000 	    0.8389320000 	   -0.0737330000
N   	   -0.1700030000 	    2.1526020000 	   -0.1239280000
N   	    1.0709190000 	    2.6566440000 	    0.0145200000
C   	    2.0227780000 	    1.8054140000 	    0.1527260000
C   	    1.8223450000 	    0.3749920000 	    0.1010380000
C   	    0.5163200000 	   -0.1363960000 	   -0.0480450000
C   	    0.3608200000 	   -1.5187140000 	   -0.2405340000
C   	    1.4623850000 	   -2.3557000000 	   -0.2312900000
C   	    2.7491750000 	   -1.8470470000 	   -0.0306170000
C   	    2.9264690000 	   -0.4871580000 	    0.1268660000
O   	   -2.3385650000 	   -1.4559050000 	    0.5752020000
H   	   -2.5632260000 	    1.5875440000 	   -0.3005060000
H   	   -0.8749990000 	    2.8734540000 	   -0.1687450000
H   	    3.0212130000 	    2.2182040000 	    0.2710450000
H   	   -0.6259800000 	   -1.9341700000 	   -0.3801540000
H   	    1.3176060000 	   -3.4218910000 	   -0.3799950000
H   	    3.6049700000 	   -2.5164130000 	   -0.0137260000
H   	    3.9210410000 	   -0.0662940000 	    0.2546220000
