15
tauto -508.002705
O   	    3.3288720000 	   -0.4784640000 	    0.0000720000
N   	    2.2090040000 	    0.0102040000 	   -0.0000760000
C   	    1.1094230000 	   -0.8641040000 	   -0.0000360000
C   	   -0.1979100000 	   -0.4476660000 	   -0.0000130000
N   	   -0.5716380000 	    0.8766810000 	   -0.0000120000
C   	   -1.8694990000 	    1.2703800000 	   -0.0000020000
N   	   -2.8855230000 	    0.4712600000 	    0.0000180000
C   	   -2.5726910000 	   -0.8694850000 	    0.0000160000
C   	   -1.3091470000 	   -1.3605930000 	   -0.0000010000
O   	    2.0161820000 	    1.2430090000 	    0.0000120000
H   	    1.3774080000 	   -1.9095770000 	   -0.0000250000
H   	    0.2082590000 	    1.5375880000 	    0.0000070000
H   	   -2.0274350000 	    2.3463880000 	    0.0000150000
H   	   -3.4270880000 	   -1.5414110000 	    0.0000290000
H   	   -1.1155270000 	   -2.4275570000 	    0.0000000000
