32
tauto -875.933363564
C   	   -5.2953370000 	   -0.0563970000 	    0.9468190000
C   	   -4.6706580000 	   -0.3332250000 	   -0.4072410000
O   	   -3.2461450000 	   -0.5003680000 	   -0.2979640000
C   	   -2.5272110000 	    0.6195200000 	   -0.2555840000
C   	   -1.0643540000 	    0.3897430000 	   -0.1423250000
C   	   -0.4212660000 	   -0.9210430000 	   -0.0205460000
N   	    1.0002100000 	   -0.8763730000 	    0.0466850000
C   	    1.6827300000 	   -2.1711780000 	    0.1831460000
C   	    3.0721960000 	   -2.1280450000 	   -0.4339080000
C   	    3.8973470000 	   -1.0153840000 	    0.2055870000
O   	   -0.9773390000 	   -1.9978010000 	    0.0319640000
C   	   -0.2885360000 	    1.5022640000 	   -0.1330090000
N   	    1.0545960000 	    1.4530740000 	   -0.0368400000
C   	    1.7516720000 	    0.2725250000 	    0.0569940000
C   	    3.1315770000 	    0.2844730000 	    0.1497550000
C   	    3.8413240000 	    1.5313680000 	    0.1528460000
O   	    3.3587730000 	    2.6698310000 	    0.0999580000
O   	   -3.0029000000 	    1.7373720000 	   -0.3155520000
H   	   -6.3854200000 	   -0.0113950000 	    0.8516390000
H   	   -4.9440230000 	    0.9010430000 	    1.3408000000
H   	   -5.0416370000 	   -0.8497840000 	    1.6562710000
H   	   -4.8812350000 	    0.4733340000 	   -1.1142700000
H   	   -5.0183740000 	   -1.2815800000 	   -0.8226800000
H   	    1.0413280000 	   -2.9116110000 	   -0.2946300000
H   	    1.7391780000 	   -2.4243600000 	    1.2493190000
H   	    2.9849480000 	   -1.9559010000 	   -1.5135420000
H   	    3.5484050000 	   -3.1038250000 	   -0.2933290000
H   	    4.8546780000 	   -0.9043060000 	   -0.3180550000
H   	    4.1403240000 	   -1.2920460000 	    1.2416560000
H   	   -0.7406110000 	    2.4866870000 	   -0.2039190000
H   	    1.6594800000 	    2.2868080000 	   -0.0178730000
H   	    4.9432910000 	    1.4300370000 	    0.2072300000
