29
tauto -836.618768901
C   	   -5.0747610000 	   -0.0487920000 	    0.9883090000
C   	   -4.4750760000 	    0.2234970000 	   -0.3781860000
O   	   -3.0570440000 	    0.4418550000 	   -0.2905390000
C   	   -2.2986030000 	   -0.6538920000 	   -0.2337950000
C   	   -0.8430560000 	   -0.3600550000 	   -0.1459690000
C   	   -0.0071910000 	   -1.4449190000 	   -0.1001500000
N   	    1.3489400000 	   -1.3986720000 	   -0.0212970000
C   	    1.8576720000 	   -0.1837460000 	    0.0122180000
C   	    3.2619710000 	    0.1389960000 	    0.0931120000
C   	    3.4028940000 	    1.6482980000 	    0.1149050000
C   	    1.9432810000 	    2.1651270000 	    0.0165430000
C   	    4.2072560000 	   -0.8227110000 	    0.1374890000
O   	    3.9694980000 	   -2.1291710000 	    0.1139970000
N   	    1.1257570000 	    0.9493650000 	   -0.0257730000
C   	   -0.2822550000 	    0.9911740000 	   -0.1090150000
O   	   -0.8385020000 	    2.0707720000 	   -0.1390840000
O   	   -2.7401310000 	   -1.7858560000 	   -0.2572050000
H   	   -6.1636530000 	   -0.1335700000 	    0.9072160000
H   	   -4.8408880000 	    0.7664040000 	    1.6797600000
H   	   -4.6852370000 	   -0.9855740000 	    1.3957420000
H   	   -4.8616570000 	    1.1504180000 	   -0.8076310000
H   	   -4.6656390000 	   -0.6042900000 	   -1.0663070000
H   	   -0.4543290000 	   -2.4352170000 	   -0.1299330000
H   	    4.0011660000 	    2.0188690000 	   -0.7232300000
H   	    3.8757600000 	    2.0031260000 	    1.0360620000
H   	    1.7513160000 	    2.7518880000 	   -0.8853700000
H   	    1.6378100000 	    2.7692170000 	    0.8744090000
H   	    5.2688960000 	   -0.5905380000 	    0.1979490000
H   	    2.9902230000 	   -2.2642290000 	    0.0607240000
