35
tauto -915.206530822
C   	    5.6123320000 	    0.4294560000 	    0.7689680000
C   	    4.9605170000 	    0.2630290000 	   -0.5902390000
O   	    3.5299310000 	    0.3893660000 	   -0.4988250000
C   	    2.8705790000 	   -0.6983090000 	   -0.1086750000
C   	    1.3987160000 	   -0.5161920000 	   -0.0383920000
C   	    0.6861880000 	    0.7555960000 	   -0.2020530000
N   	   -0.7297240000 	    0.6821770000 	   -0.0562560000
C   	   -1.3800600000 	    2.0090320000 	    0.0840410000
C   	   -2.6354450000 	    2.0076490000 	    0.9528460000
C   	   -3.9043010000 	    1.6184240000 	    0.1865210000
C   	   -3.6107960000 	    0.5055620000 	   -0.8215500000
O   	    1.2070840000 	    1.8350800000 	   -0.3855480000
C   	    0.6799000000 	   -1.6247990000 	    0.2429750000
N   	   -0.6705950000 	   -1.6211430000 	    0.3027270000
C   	   -1.4482120000 	   -0.5029900000 	   -0.0029620000
C   	   -2.7947620000 	   -0.6191800000 	   -0.2343150000
C   	   -3.5200330000 	   -1.8312290000 	    0.1160370000
O   	   -4.7031540000 	   -2.0164710000 	   -0.1057650000
O   	    3.4005100000 	   -1.7629400000 	    0.1487550000
H   	    6.7022270000 	    0.4117360000 	    0.6633370000
H   	    5.3174640000 	   -0.3843370000 	    1.4368560000
H   	    5.3233940000 	    1.3841130000 	    1.2186330000
H   	    5.2034900000 	   -0.7066470000 	   -1.0322340000
H   	    5.2538600000 	    1.0604060000 	   -1.2763260000
H   	   -1.5791050000 	    2.4272510000 	   -0.9088570000
H   	   -0.6134130000 	    2.6428420000 	    0.5295630000
H   	   -2.7459670000 	    3.0113840000 	    1.3785000000
H   	   -2.4777350000 	    1.3338170000 	    1.8031590000
H   	   -4.6759240000 	    1.2904750000 	    0.8924490000
H   	   -4.3082850000 	    2.4904420000 	   -0.3430370000
H   	   -3.0906160000 	    0.9209900000 	   -1.6928560000
H   	   -4.5432890000 	    0.0686450000 	   -1.1885570000
H   	    1.1764380000 	   -2.5748350000 	    0.4152060000
H   	   -1.1428780000 	   -2.5104840000 	    0.3344730000
H   	   -2.9601400000 	   -2.6296320000 	    0.6562320000
