22
tauto -625.553284509
N   	    2.8262160000 	    2.7251600000 	    0.0002660000
C   	    2.7151840000 	    1.5681540000 	    0.0000650000
C   	    2.4121350000 	    0.1789920000 	   -0.0001300000
C   	    3.4499030000 	   -0.7939280000 	   -0.0003390000
N   	    4.2669730000 	   -1.6184790000 	    0.0001080000
C   	    1.0768070000 	   -0.2081700000 	   -0.0001070000
N   	    0.0908110000 	    0.7291890000 	   -0.0000960000
C   	   -1.2663180000 	    0.4507340000 	   -0.0000010000
C   	   -2.2072780000 	    1.4879860000 	   -0.0000810000
C   	   -3.5537770000 	    1.1780320000 	   -0.0000700000
C   	   -3.9846340000 	   -0.1568150000 	   -0.0000020000
C   	   -3.0542940000 	   -1.1764560000 	    0.0000780000
C   	   -1.6793490000 	   -0.8906790000 	    0.0000800000
C   	   -0.6560080000 	   -1.9071830000 	    0.0001330000
C   	    0.6554060000 	   -1.5902350000 	    0.0000020000
H   	    0.3771110000 	    1.7031520000 	    0.0000610000
H   	   -1.8736040000 	    2.5230440000 	   -0.0001370000
H   	   -4.2852100000 	    1.9812650000 	   -0.0001070000
H   	   -5.0463180000 	   -0.3840790000 	   -0.0000450000
H   	   -3.3735020000 	   -2.2161920000 	    0.0001350000
H   	   -0.9624160000 	   -2.9506220000 	    0.0003530000
H   	    1.4292800000 	   -2.3502520000 	    0.0000280000
