38
tauto -954.520261607
C   	    5.5015030000 	    0.1790080000 	    1.3941840000
C   	    5.1128040000 	    0.4314060000 	   -0.0501530000
O   	    3.7024460000 	    0.6782010000 	   -0.1764940000
C   	    2.9119810000 	   -0.4226680000 	   -0.1941490000
C   	    1.4833150000 	   -0.0385770000 	   -0.2840080000
C   	    0.4441580000 	   -1.0519100000 	   -0.4528140000
N   	   -0.8965640000 	   -0.5516440000 	   -0.5303340000
C   	   -1.8632140000 	   -1.5676610000 	   -0.9777960000
C   	   -2.3753160000 	   -2.4811270000 	    0.1420710000
C   	   -3.6822260000 	   -2.0368140000 	    0.7961150000
C   	   -3.7109070000 	   -0.5867510000 	    1.2818850000
C   	   -3.7868890000 	    0.4685000000 	    0.1505780000
O   	    0.6268030000 	   -2.2434540000 	   -0.5779750000
C   	    1.1065540000 	    1.2627870000 	   -0.2483470000
N   	   -0.1850220000 	    1.6416520000 	   -0.2776030000
C   	   -1.2460820000 	    0.7608950000 	   -0.3100240000
C   	   -2.5267060000 	    1.2733390000 	   -0.1116370000
C   	   -2.6886640000 	    2.7053200000 	   -0.0057000000
O   	   -1.8275540000 	    3.5920410000 	   -0.0744440000
O   	    3.3406700000 	   -1.5480450000 	   -0.1356510000
H   	    6.5874130000 	    0.0622800000 	    1.4742190000
H   	    5.0290660000 	   -0.7364500000 	    1.7597930000
H   	    5.1971600000 	    1.0168090000 	    2.0294620000
H   	    5.3799460000 	   -0.4176190000 	   -0.6844730000
H   	    5.5827400000 	    1.3371030000 	   -0.4412400000
H   	   -2.6679280000 	   -1.0571670000 	   -1.5061060000
H   	   -1.3198440000 	   -2.1688970000 	   -1.7071940000
H   	   -2.5097910000 	   -3.4866680000 	   -0.2731490000
H   	   -1.5824320000 	   -2.5721640000 	    0.8927860000
H   	   -3.8866590000 	   -2.7040540000 	    1.6425050000
H   	   -4.5112050000 	   -2.1818650000 	    0.0879870000
H   	   -2.8404790000 	   -0.3840950000 	    1.9199210000
H   	   -4.5907140000 	   -0.4663500000 	    1.9246920000
H   	   -4.5476400000 	    1.2054090000 	    0.4324140000
H   	   -4.1926850000 	    0.0010390000 	   -0.7556930000
H   	    1.8336790000 	    2.0639260000 	   -0.1758050000
H   	   -0.4753840000 	    2.6295570000 	   -0.1885860000
H   	   -3.7349370000 	    3.0247180000 	    0.1593010000
