35
tauto -915.240435229
C   	    5.1158030000 	    0.5016050000 	    0.8736030000
C   	    4.4299170000 	    0.5462550000 	   -0.4770790000
O   	    3.0002020000 	    0.3988840000 	   -0.3373540000
C   	    2.5399470000 	   -0.8444630000 	   -0.1976590000
C   	    1.0437360000 	   -0.8554760000 	   -0.0619220000
N   	    0.3973420000 	    0.3469650000 	   -0.0895250000
C   	   -0.9594360000 	    0.4625720000 	    0.0293480000
N   	   -1.6681400000 	   -0.7130950000 	    0.1725070000
C   	   -3.1434040000 	   -0.6724100000 	    0.2395070000
C   	   -3.7328160000 	   -0.8662200000 	   -1.1559330000
C   	   -3.5934860000 	    0.6158720000 	    0.9237450000
C   	   -3.0520010000 	    1.8434590000 	    0.1979940000
C   	   -1.5602440000 	    1.7114920000 	    0.0129190000
C   	   -0.7583100000 	    2.8894570000 	   -0.1341460000
O   	    0.4692450000 	    2.9509980000 	   -0.2803330000
C   	    0.3758150000 	   -2.0132380000 	    0.0781400000
C   	   -1.0771090000 	   -1.9947430000 	    0.1840910000
O   	   -1.7703120000 	   -2.9919790000 	    0.2719490000
O   	    3.2118000000 	   -1.8464510000 	   -0.1846180000
H   	    6.1874470000 	    0.6864480000 	    0.7471430000
H   	    4.9892970000 	   -0.4797500000 	    1.3386610000
H   	    4.7094060000 	    1.2694000000 	    1.5385780000
H   	    4.7940550000 	   -0.2430880000 	   -1.1395390000
H   	    4.5495500000 	    1.5164580000 	   -0.9622930000
H   	    0.8935840000 	    1.2431170000 	   -0.2012970000
H   	   -3.4214900000 	   -1.5308990000 	    0.8546750000
H   	   -3.4024190000 	   -0.0809130000 	   -1.8443870000
H   	   -4.8269170000 	   -0.8450220000 	   -1.1066570000
H   	   -3.4264980000 	   -1.8353350000 	   -1.5593010000
H   	   -3.2327500000 	    0.6132710000 	    1.9596310000
H   	   -4.6882950000 	    0.6279090000 	    0.9580070000
H   	   -3.2742900000 	    2.7467290000 	    0.7794050000
H   	   -3.5703210000 	    1.9653880000 	   -0.7638180000
H   	   -1.3321930000 	    3.8378100000 	   -0.1065260000
H   	    0.8894600000 	   -2.9651800000 	    0.0940400000
