10
tauto -305.184594687
O   	   -2.0138030000 	   -0.0269550000 	   -0.0005140000
C   	   -0.8191560000 	    0.0093140000 	   -0.0000590000
O   	   -0.0508440000 	   -1.1343270000 	    0.0005180000
C   	    1.2794100000 	   -0.7544970000 	   -0.0001610000
C   	    1.4687840000 	    0.5595300000 	   -0.0004900000
C   	    0.1183010000 	    1.2103480000 	    0.0004210000
H   	    1.9768370000 	   -1.5813930000 	   -0.0002820000
H   	    2.4240450000 	    1.0663090000 	   -0.0013280000
H   	   -0.0844090000 	    1.8300670000 	   -0.8802550000
H   	   -0.0833290000 	    1.8270970000 	    0.8835620000
