25
tauto -593.720725299
C   	    4.0169420000 	   -1.5888190000 	    0.0024180000
N   	    2.9627590000 	   -0.6015440000 	   -0.0012390000
C   	    1.6677360000 	   -0.8847640000 	   -0.0007780000
C   	    0.6449950000 	    0.0542440000 	   -0.0008870000
C   	   -0.7615760000 	   -0.3558680000 	   -0.0006060000
C   	   -1.1874890000 	   -1.6991480000 	   -0.0011640000
C   	   -2.5288620000 	   -2.0326620000 	   -0.0005230000
C   	   -3.5126310000 	   -1.0376020000 	    0.0006210000
C   	   -3.1212080000 	    0.2856880000 	    0.0010170000
C   	   -1.7625590000 	    0.6413620000 	    0.0004080000
C   	   -1.3758790000 	    2.0381490000 	    0.0008030000
C   	   -0.0903220000 	    2.4332000000 	    0.0003110000
C   	    1.0062030000 	    1.4651370000 	   -0.0005910000
O   	    2.1886990000 	    1.8691050000 	   -0.0009500000
H   	    4.6548070000 	   -1.4786410000 	   -0.8807740000
H   	    3.5798500000 	   -2.5915030000 	   -0.0077480000
H   	    4.6395310000 	   -1.4897590000 	    0.8978820000
H   	    3.1591220000 	    0.4074460000 	   -0.0008960000
H   	    1.4362670000 	   -1.9492780000 	   -0.0003080000
H   	   -0.4615850000 	   -2.5076290000 	   -0.0021740000
H   	   -2.8174330000 	   -3.0810430000 	   -0.0009450000
H   	   -4.5660420000 	   -1.3033090000 	    0.0011470000
H   	   -3.8670770000 	    1.0785320000 	    0.0018340000
H   	   -2.1745190000 	    2.7788770000 	    0.0015030000
H   	    0.1960640000 	    3.4807740000 	    0.0005740000
