32
tauto -875.926888583
C   	   -5.1529770000 	    0.7314090000 	   -0.8949360000
C   	   -4.7921250000 	   -0.4902020000 	   -0.0712790000
O   	   -3.4168240000 	   -0.8657900000 	   -0.2712470000
C   	   -2.5162850000 	   -0.1951910000 	    0.4449990000
C   	   -1.1039480000 	   -0.7523580000 	    0.2096210000
C   	   -0.0254060000 	    0.1856050000 	    0.1511340000
C   	   -0.2584310000 	    1.6834880000 	    0.1781960000
C   	    0.9100060000 	    2.4113020000 	   -0.4760200000
C   	    2.2200120000 	    1.9628700000 	    0.1441360000
C   	    1.2783850000 	   -0.3040770000 	    0.0342300000
N   	    1.5148720000 	   -1.6451680000 	   -0.0588490000
C   	    2.7655200000 	   -2.1792270000 	   -0.1696030000
C   	    3.8617880000 	   -1.4035940000 	   -0.1950470000
N   	    2.3864360000 	    0.5099730000 	    0.0084420000
C   	    3.7202730000 	    0.0392420000 	   -0.0862980000
O   	    4.6474170000 	    0.8268930000 	   -0.0680740000
O   	   -1.0223870000 	   -1.9907400000 	    0.1355560000
O   	   -2.7712150000 	    0.6980790000 	    1.2202380000
H   	   -6.2205160000 	    0.9499260000 	   -0.7870350000
H   	   -4.9415580000 	    0.5582450000 	   -1.9545430000
H   	   -4.5876180000 	    1.6034190000 	   -0.5549920000
H   	   -5.3588910000 	   -1.3691860000 	   -0.3857980000
H   	   -4.9577250000 	   -0.3135470000 	    0.9946220000
H   	   -0.3948710000 	    2.0430410000 	    1.2055640000
H   	   -1.1852090000 	    1.9311940000 	   -0.3477010000
H   	    0.8104420000 	    3.4942310000 	   -0.3492940000
H   	    0.9303110000 	    2.2065470000 	   -1.5537940000
H   	    2.2547810000 	    2.2194800000 	    1.2103920000
H   	    3.0877790000 	    2.4188010000 	   -0.3324590000
H   	    0.6545950000 	   -2.2105150000 	   -0.0273430000
H   	    2.8002750000 	   -3.2619010000 	   -0.2337180000
H   	    4.8622610000 	   -1.8065040000 	   -0.2776410000
