32
tauto -785.412403613
O   	    0.0396090000 	    2.6682800000 	    0.0816040000
C   	    1.0177570000 	    1.8951290000 	    0.0794000000
C   	    2.3717810000 	    2.4373440000 	    0.1934860000
C   	    3.4509060000 	    1.6358410000 	    0.1826940000
C   	    3.3535680000 	    0.1946370000 	    0.0470220000
C   	    2.0822200000 	   -0.4090250000 	   -0.0669220000
C   	    2.0401210000 	   -1.8074680000 	   -0.2213950000
C   	    3.1957040000 	   -2.5670120000 	   -0.2450840000
C   	    4.4499130000 	   -1.9615000000 	   -0.1198630000
C   	    4.5173550000 	   -0.5897550000 	    0.0214920000
C   	    0.8863630000 	    0.4423870000 	   -0.0220260000
C   	   -0.3809120000 	   -0.1066250000 	   -0.0487140000
N   	   -1.5167790000 	    0.5969270000 	   -0.0277400000
C   	   -2.8201130000 	    0.0654680000 	    0.0056960000
C   	   -3.8676220000 	    0.8604020000 	   -0.4649290000
C   	   -5.1693130000 	    0.3771300000 	   -0.4472830000
C   	   -5.4402030000 	   -0.9022550000 	    0.0309600000
C   	   -4.3959940000 	   -1.6882870000 	    0.5071320000
C   	   -3.0907630000 	   -1.2083740000 	    0.5084920000
H   	    2.4488720000 	    3.5163330000 	    0.2877480000
H   	    4.4486670000 	    2.0636120000 	    0.2714760000
H   	    1.0899620000 	   -2.3215230000 	   -0.3367820000
H   	    3.1224990000 	   -3.6448140000 	   -0.3674250000
H   	    5.3559680000 	   -2.5606100000 	   -0.1392480000
H   	    5.4821080000 	   -0.0943930000 	    0.1143870000
H   	   -0.5106330000 	   -1.1844890000 	   -0.0985950000
H   	   -1.3642630000 	    1.6133400000 	   -0.0318220000
H   	   -3.6513990000 	    1.8527500000 	   -0.8533700000
H   	   -5.9761770000 	    1.0045710000 	   -0.8165700000
H   	   -6.4585710000 	   -1.2802840000 	    0.0407230000
H   	   -4.5967940000 	   -2.6810160000 	    0.9013740000
H   	   -2.2942600000 	   -1.8164250000 	    0.9285100000
