41
tauto -1143.03538427
C   	   -6.6755260000 	   -1.4777680000 	    0.8148930000
C   	   -6.1742310000 	   -0.9359130000 	   -0.5086240000
O   	   -4.7358660000 	   -1.0300220000 	   -0.5988590000
C   	   -4.0265130000 	   -0.0585340000 	    0.0107290000
C   	   -2.5496760000 	   -0.3457390000 	   -0.1455170000
O   	   -2.2771790000 	   -1.5569340000 	   -0.6646530000
C   	   -1.5877020000 	    0.5454130000 	    0.1911730000
C   	   -1.8496540000 	    1.9709300000 	    0.6096340000
C   	   -1.0475100000 	    2.8710510000 	   -0.3256940000
C   	    0.4368470000 	    2.6133040000 	   -0.1641990000
N   	    0.7675170000 	    1.1787310000 	   -0.0839730000
C   	   -0.1513840000 	    0.1787740000 	    0.0840000000
N   	    0.1914250000 	   -1.0800910000 	    0.2047630000
C   	    1.5071630000 	   -1.3775350000 	    0.1311500000
C   	    2.5155960000 	   -0.4724660000 	   -0.0409980000
C   	    3.9018090000 	   -1.0081450000 	   -0.1052430000
O   	    4.8254780000 	   -0.0770010000 	   -0.3527790000
C   	    6.1825790000 	   -0.5410930000 	   -0.4327550000
C   	    6.7908540000 	   -0.7032480000 	    0.9476960000
O   	    4.1537900000 	   -2.1882710000 	    0.0384550000
C   	    2.1763250000 	    0.9349210000 	   -0.1254670000
O   	    2.9257690000 	    1.8893780000 	   -0.2186030000
O   	   -4.5413250000 	    0.8669130000 	    0.5899840000
H   	   -7.7699540000 	   -1.4553900000 	    0.8299780000
H   	   -6.3083420000 	   -0.8676040000 	    1.6442210000
H   	   -6.3505730000 	   -2.5123980000 	    0.9599520000
H   	   -6.4562740000 	    0.1102210000 	   -0.6476030000
H   	   -6.5336070000 	   -1.5262360000 	   -1.3537930000
H   	   -3.1209730000 	   -1.9800720000 	   -0.8849860000
H   	   -1.5137720000 	    2.1234980000 	    1.6453750000
H   	   -2.9094210000 	    2.2085210000 	    0.5785820000
H   	   -1.2378910000 	    3.9282620000 	   -0.1124430000
H   	   -1.3589170000 	    2.6873090000 	   -1.3612030000
H   	    0.8177290000 	    3.0801840000 	    0.7509680000
H   	    1.0212110000 	    3.0306210000 	   -0.9863840000
H   	    1.7648910000 	   -2.4302630000 	    0.2235900000
H   	    6.6958340000 	    0.2335920000 	   -1.0069950000
H   	    6.2056840000 	   -1.4827040000 	   -0.9878720000
H   	    6.7141530000 	    0.2317140000 	    1.5110260000
H   	    7.8496470000 	   -0.9696290000 	    0.8601030000
H   	    6.2787770000 	   -1.4963420000 	    1.4989200000
