32
tauto -785.393168731
O   	    0.3011860000 	   -0.5220530000 	   -0.9745220000
C   	   -0.5813350000 	    0.1614470000 	   -0.4601950000
C   	   -1.9518550000 	   -0.3837900000 	   -0.2609750000
C   	   -2.1852700000 	   -1.7320950000 	   -0.5485150000
C   	   -3.4453200000 	   -2.2788250000 	   -0.3754350000
C   	   -4.4925370000 	   -1.4722860000 	    0.0830340000
C   	   -4.2732930000 	   -0.1342830000 	    0.3643980000
C   	   -3.0002280000 	    0.4323920000 	    0.2004530000
C   	   -2.7480310000 	    1.8374820000 	    0.4844770000
C   	   -1.5147280000 	    2.3555630000 	    0.3585560000
C   	   -0.3651480000 	    1.5575930000 	   -0.0472870000
C   	    0.8431960000 	    2.2023520000 	   -0.1333330000
N   	    2.1069080000 	    1.7613050000 	   -0.3388400000
C   	    2.7277160000 	    0.5221950000 	   -0.0432350000
C   	    2.2667750000 	   -0.3126910000 	    0.9723230000
C   	    2.9720710000 	   -1.4684630000 	    1.2818850000
C   	    4.1377340000 	   -1.7951350000 	    0.5944940000
C   	    4.5995860000 	   -0.9516310000 	   -0.4109910000
C   	    3.8977770000 	    0.2042120000 	   -0.7305010000
H   	   -1.3499270000 	   -2.3254980000 	   -0.9094110000
H   	   -3.6222610000 	   -3.3281570000 	   -0.5962330000
H   	   -5.4843910000 	   -1.8970160000 	    0.2183420000
H   	   -5.0901430000 	    0.4921630000 	    0.7174850000
H   	   -3.5825280000 	    2.4580700000 	    0.8018220000
H   	   -1.3438090000 	    3.4082720000 	    0.5810140000
H   	    0.8105100000 	    3.2881420000 	   -0.0306880000
H   	    2.7697570000 	    2.4950390000 	   -0.5420430000
H   	    1.3678480000 	   -0.0507060000 	    1.5214030000
H   	    2.6050830000 	   -2.1191670000 	    2.0712420000
H   	    4.6823590000 	   -2.7023300000 	    0.8414140000
H   	    5.5085530000 	   -1.1944260000 	   -0.9551510000
H   	    4.2484530000 	    0.8586770000 	   -1.5260610000
