16
tauto -529.152787664
C   	   -3.4579060000 	    0.4632100000 	   -0.0001830000
N   	   -2.1102990000 	   -0.0629810000 	    0.0002670000
N   	   -1.1085950000 	    0.7483170000 	    0.0000940000
C   	    0.1060200000 	    0.2535490000 	    0.0000870000
C   	    1.3295670000 	    1.0476520000 	    0.0000000000
C   	    2.4484190000 	    0.0016780000 	   -0.0000220000
O   	    1.8152700000 	   -1.2879090000 	   -0.0001040000
O   	    1.4993220000 	    2.2454370000 	   -0.0000250000
C   	    0.4696170000 	   -1.1639610000 	    0.0000040000
O   	   -0.2747720000 	   -2.1244960000 	   -0.0000040000
H   	   -3.9985260000 	    0.1311660000 	    0.8918710000
H   	   -3.9985250000 	    0.1295380000 	   -0.8916390000
H   	   -3.3872200000 	    1.5516070000 	   -0.0012300000
H   	   -1.9258770000 	   -1.0694450000 	    0.0001730000
H   	    3.0747230000 	    0.0913510000 	    0.8919770000
H   	    3.0748190000 	    0.0914070000 	   -0.8919420000
