26
tauto -631.802108975
O   	    1.4394290000 	    1.9038510000 	    0.2563890000
C   	    2.2181660000 	    0.9309990000 	    0.1261960000
C   	    3.6599170000 	    1.0988410000 	    0.1456730000
C   	    4.4973590000 	    0.0401600000 	   -0.0051340000
C   	    4.0125450000 	   -1.2975800000 	   -0.1921550000
C   	    2.6737980000 	   -1.5171360000 	   -0.2178080000
C   	    1.7408560000 	   -0.4389960000 	   -0.0587730000
C   	    0.3781040000 	   -0.6986550000 	   -0.0931280000
N   	   -0.5500580000 	    0.2434540000 	    0.0396430000
C   	   -1.9472730000 	    0.0620530000 	    0.0240870000
C   	   -2.7451130000 	    1.1677770000 	   -0.2762600000
C   	   -4.1274570000 	    1.0386790000 	   -0.3035080000
C   	   -4.7258680000 	   -0.1901820000 	   -0.0383140000
C   	   -3.9276820000 	   -1.2873640000 	    0.2698140000
C   	   -2.5431150000 	   -1.1664450000 	    0.3126380000
H   	    4.0298470000 	    2.1103660000 	    0.2855110000
H   	    5.5730780000 	    0.2048260000 	    0.0149270000
H   	    4.7171690000 	   -2.1150160000 	   -0.3100250000
H   	    2.2801170000 	   -2.5235190000 	   -0.3580460000
H   	    0.0278800000 	   -1.7183380000 	   -0.2518520000
H   	   -0.1367770000 	    1.1870880000 	    0.1402710000
H   	   -2.2731870000 	    2.1224450000 	   -0.4956470000
H   	   -4.7396410000 	    1.9048630000 	   -0.5399330000
H   	   -5.8071980000 	   -0.2904610000 	   -0.0639060000
H   	   -4.3846340000 	   -2.2474270000 	    0.4946410000
H   	   -1.9370860000 	   -2.0227330000 	    0.5954800000
