38
tauto -863.989020224
C   	   -1.0056830000 	    2.7595970000 	   -0.9811920000
C   	   -0.2180930000 	    1.9037200000 	   -0.0079780000
N   	    1.0475140000 	    2.3947590000 	    0.1377210000
C   	    2.2749590000 	    1.7614450000 	    0.5893110000
C   	    2.6025710000 	    0.4576460000 	   -0.1163390000
C   	    2.4010940000 	    0.3034780000 	   -1.4877700000
C   	    2.7495830000 	   -0.8814050000 	   -2.1266240000
C   	    3.3104550000 	   -1.9277710000 	   -1.3989800000
C   	    3.5123070000 	   -1.7832370000 	   -0.0300470000
C   	    3.1543270000 	   -0.5986900000 	    0.6070840000
C   	   -0.7305760000 	    0.7488630000 	    0.5542600000
C   	   -2.0138330000 	    0.1371780000 	    0.1300600000
C   	   -3.1582930000 	    0.8548300000 	   -0.2556300000
C   	   -4.3138870000 	    0.2156200000 	   -0.6866860000
C   	   -4.3790780000 	   -1.1743470000 	   -0.7331650000
C   	   -3.2910830000 	   -1.9062540000 	   -0.2860980000
C   	   -2.1289720000 	   -1.2742720000 	    0.1672970000
C   	   -1.0661800000 	   -2.0690610000 	    0.7691980000
C   	   -0.0682110000 	   -1.4952030000 	    1.4538340000
C   	    0.0370590000 	   -0.0268250000 	    1.5537330000
O   	    0.7355970000 	    0.4836770000 	    2.4289890000
H   	   -0.3326730000 	    3.3691790000 	   -1.5925730000
H   	   -1.6895930000 	    3.4366610000 	   -0.4594210000
H   	   -1.5973140000 	    2.1423640000 	   -1.6596910000
H   	    1.1931370000 	    3.2755260000 	   -0.3262930000
H   	    2.2380630000 	    1.5922430000 	    1.6682730000
H   	    3.0681730000 	    2.4891470000 	    0.3815340000
H   	    1.9569710000 	    1.1167850000 	   -2.0591830000
H   	    2.5818630000 	   -0.9899310000 	   -3.1953330000
H   	    3.5815400000 	   -2.8552520000 	   -1.8970500000
H   	    3.9397330000 	   -2.5994700000 	    0.5472810000
H   	    3.2752680000 	   -0.4966560000 	    1.6835120000
H   	   -3.1749060000 	    1.9344950000 	   -0.1721040000
H   	   -5.1768490000 	    0.8125290000 	   -0.9719050000
H   	   -5.2789400000 	   -1.6762190000 	   -1.0780500000
H   	   -3.3374800000 	   -2.9935150000 	   -0.2593050000
H   	   -1.1544490000 	   -3.1531050000 	    0.7151840000
H   	    0.6792780000 	   -2.0693850000 	    1.9935450000
