30
tauto -874.686633696
C   	   -3.4035450000 	   -0.0846390000 	    1.7245810000
C   	   -3.4923360000 	   -0.1208640000 	    0.2052380000
C   	   -4.9008850000 	   -0.3223780000 	   -0.3072630000
O   	   -2.7328200000 	   -1.2353340000 	   -0.2924220000
C   	   -1.3910420000 	   -1.1443140000 	   -0.3010180000
C   	   -0.8245060000 	    0.2080470000 	   -0.2064380000
N   	    0.4580470000 	    0.4568230000 	   -0.1257020000
N   	    1.3304800000 	   -0.4949160000 	   -0.1119240000
C   	    2.7099490000 	   -0.2085180000 	   -0.0100250000
C   	    3.1731410000 	    1.1025480000 	    0.0843960000
C   	    4.5402330000 	    1.3264270000 	    0.1839520000
C   	    5.4391930000 	    0.2617630000 	    0.1897130000
C   	    4.9621590000 	   -1.0416640000 	    0.0936150000
C   	    3.5968390000 	   -1.2826350000 	   -0.0063970000
O   	   -0.7220600000 	   -2.1556780000 	   -0.4115540000
O   	   -3.0374650000 	    1.1043520000 	   -0.3476550000
C   	   -1.7033210000 	    1.3974170000 	   -0.3093850000
O   	   -1.3360220000 	    2.5332500000 	   -0.4228020000
H   	   -3.7787440000 	   -1.0231110000 	    2.1411440000
H   	   -4.0059340000 	    0.7447040000 	    2.1042790000
H   	   -2.3704180000 	    0.0580450000 	    2.0576370000
H   	   -5.3032130000 	   -1.2657470000 	    0.0703460000
H   	   -4.8894650000 	   -0.3466010000 	   -1.3993110000
H   	   -5.5348390000 	    0.5026550000 	    0.0266150000
H   	    1.0058020000 	   -1.4605090000 	   -0.2050420000
H   	    2.4620140000 	    1.9220240000 	    0.0763760000
H   	    4.9065770000 	    2.3468910000 	    0.2578080000
H   	    6.5064510000 	    0.4481400000 	    0.2691040000
H   	    5.6542640000 	   -1.8793350000 	    0.0961480000
H   	    3.2194920000 	   -2.3003560000 	   -0.0820660000
