22
tauto -591.513823578
C   	   -4.5978460000 	   -0.1044470000 	    0.1182240000
N   	   -3.1919280000 	    0.1523960000 	   -0.0867510000
C   	   -2.2449420000 	   -0.8028090000 	   -0.0397750000
C   	   -0.9212920000 	   -0.5051390000 	   -0.0389090000
O   	    0.0719240000 	   -1.4868870000 	   -0.0301850000
C   	    1.2540600000 	   -0.8136100000 	   -0.0078070000
C   	    2.5068210000 	   -1.4173720000 	    0.0096730000
C   	    3.6078740000 	   -0.5712860000 	    0.0321770000
C   	    3.4722440000 	    0.8268010000 	    0.0369440000
C   	    2.2139160000 	    1.4089460000 	    0.0187240000
C   	    1.0992730000 	    0.5726010000 	   -0.0033550000
C   	   -0.3496620000 	    0.8270350000 	   -0.0279660000
O   	   -0.9741970000 	    1.8925940000 	   -0.0346730000
H   	   -5.1963950000 	    0.5238010000 	   -0.5478300000
H   	   -4.9087500000 	    0.0879400000 	    1.1532680000
H   	   -4.8128810000 	   -1.1510110000 	   -0.1173380000
H   	   -2.8363060000 	    1.1066100000 	   -0.0607090000
H   	   -2.5837250000 	   -1.8373670000 	   -0.0175120000
H   	    2.6088270000 	   -2.4978940000 	    0.0057100000
H   	    4.6042170000 	   -1.0062530000 	    0.0466860000
H   	    4.3620280000 	    1.4497610000 	    0.0547140000
H   	    2.0819870000 	    2.4876610000 	    0.0215570000
