34
tauto -802.860849798
C   	   -3.4987420000 	   -0.0691770000 	    1.6859050000
C   	   -3.6470080000 	   -0.1199020000 	    0.1589730000
C   	   -5.1244420000 	   -0.3023670000 	   -0.1969910000
C   	   -2.8384170000 	   -1.2917830000 	   -0.4164610000
C   	   -1.3358730000 	   -1.1517820000 	   -0.2825960000
C   	   -0.7641000000 	    0.2004350000 	   -0.2447940000
N   	    0.5250050000 	    0.4495930000 	   -0.1570000000
N   	    1.3928690000 	   -0.5057120000 	   -0.1091490000
C   	    2.7713220000 	   -0.2176850000 	   -0.0157670000
C   	    3.6605010000 	   -1.2896930000 	    0.0197890000
C   	    5.0255080000 	   -1.0441490000 	    0.1142300000
C   	    5.5008710000 	    0.2621510000 	    0.1725430000
C   	    4.6001520000 	    1.3250060000 	    0.1355040000
C   	    3.2336520000 	    1.0964310000 	    0.0415130000
O   	   -0.6279320000 	   -2.1597060000 	   -0.2332740000
C   	   -3.1230260000 	    1.1795200000 	   -0.4691330000
C   	   -1.6330110000 	    1.4146270000 	   -0.2804990000
O   	   -1.1804780000 	    2.5373610000 	   -0.1910650000
H   	   -3.8734860000 	   -0.9926980000 	    2.1426070000
H   	   -4.0708390000 	    0.7688580000 	    2.1002080000
H   	   -2.4548870000 	    0.0578710000 	    1.9970070000
H   	   -5.5183430000 	   -1.2319570000 	    0.2310380000
H   	   -5.2702410000 	   -0.3417190000 	   -1.2831930000
H   	   -5.7235760000 	    0.5281560000 	    0.1941670000
H   	   -3.0484520000 	   -1.3883830000 	   -1.4927350000
H   	   -3.1196120000 	   -2.2454530000 	    0.0439400000
H   	    1.0555780000 	   -1.4720880000 	   -0.1365190000
H   	    3.2841950000 	   -2.3095540000 	   -0.0266460000
H   	    5.7189340000 	   -1.8804000000 	    0.1418450000
H   	    6.5678990000 	    0.4521330000 	    0.2475550000
H   	    4.9651750000 	    2.3476840000 	    0.1814510000
H   	    2.5188940000 	    1.9123600000 	    0.0127880000
H   	   -3.6447620000 	    2.0579170000 	   -0.0747940000
H   	   -3.3086190000 	    1.1590740000 	   -1.5542520000
