29
tauto -836.564609864
C   	    2.3379140000 	    3.5278180000 	   -0.1531820000
O   	    1.5561760000 	    2.3427610000 	   -0.2927230000
C   	    2.1605580000 	    1.2261140000 	    0.1455440000
C   	    1.2634960000 	    0.0345470000 	    0.0543590000
C   	    1.8086960000 	   -1.3425620000 	    0.0147950000
O   	    3.1214520000 	   -1.4103940000 	   -0.1719250000
C   	    3.6622470000 	   -2.7318760000 	   -0.2360670000
O   	    1.1017620000 	   -2.3392700000 	    0.0994610000
N   	   -0.0143490000 	    0.2865360000 	    0.0450350000
N   	   -0.9169350000 	   -0.6494050000 	    0.0361350000
C   	   -2.2855530000 	   -0.3172370000 	    0.0169870000
C   	   -2.7112310000 	    1.0093870000 	   -0.0445400000
C   	   -4.0728980000 	    1.2825320000 	   -0.0627830000
C   	   -5.0093850000 	    0.2518750000 	   -0.0227050000
C   	   -4.5721930000 	   -1.0676940000 	    0.0367310000
C   	   -3.2128610000 	   -1.3573210000 	    0.0571630000
O   	    3.2885080000 	    1.2081530000 	    0.5790920000
H   	    2.5815040000 	    3.7073420000 	    0.8973820000
H   	    1.7187850000 	    4.3348890000 	   -0.5456160000
H   	    3.2681310000 	    3.4454830000 	   -0.7212150000
H   	    4.7343200000 	   -2.5971790000 	   -0.3745920000
H   	    3.2290970000 	   -3.2822510000 	   -1.0750270000
H   	    3.4576620000 	   -3.2727900000 	    0.6909270000
H   	   -0.6153000000 	   -1.6237770000 	    0.0648720000
H   	   -1.9719680000 	    1.8026190000 	   -0.0779260000
H   	   -4.4054590000 	    2.3163030000 	   -0.1110290000
H   	   -6.0722920000 	    0.4759320000 	   -0.0387370000
H   	   -5.2920240000 	   -1.8813120000 	    0.0681910000
H   	   -2.8694000000 	   -2.3886760000 	    0.1055390000
