31
tauto -672.330112493
C   	    1.6471360000 	   -2.1538880000 	    0.6043750000
C   	    1.9118040000 	   -0.7772480000 	    0.0488160000
N   	    3.1927410000 	   -0.4871810000 	   -0.1951710000
C   	    4.3270150000 	   -1.3369740000 	    0.0943950000
C   	    0.9193770000 	    0.2091480000 	   -0.1176480000
C   	   -0.5168790000 	   -0.0827490000 	   -0.0969020000
C   	   -1.4366010000 	    0.9555010000 	    0.1724940000
C   	   -0.9483850000 	    2.3096850000 	    0.3282030000
C   	    0.3442280000 	    2.6212860000 	    0.1350940000
C   	   -2.8160870000 	    0.6976830000 	    0.2178000000
C   	   -3.3388880000 	   -0.5573550000 	   -0.0353100000
C   	   -4.8198150000 	   -0.8317900000 	    0.0249070000
C   	   -2.4323980000 	   -1.5689030000 	   -0.3868660000
C   	   -1.0703980000 	   -1.3377760000 	   -0.4287560000
C   	    1.3501580000 	    1.6020160000 	   -0.1739910000
O   	    2.5255880000 	    1.9713150000 	   -0.3920280000
H   	    2.4141330000 	   -2.4030120000 	    1.3441250000
H   	    1.6897700000 	   -2.9208350000 	   -0.1783960000
H   	    0.6748220000 	   -2.2084050000 	    1.0911040000
H   	    3.3414680000 	    0.4998460000 	   -0.4499400000
H   	    4.2099170000 	   -2.3275170000 	   -0.3569660000
H   	    4.4954050000 	   -1.4613060000 	    1.1720960000
H   	    5.2150790000 	   -0.8710100000 	   -0.3366800000
H   	   -1.6743270000 	    3.0871820000 	    0.5621950000
H   	    0.7137260000 	    3.6407150000 	    0.1979940000
H   	   -3.4886540000 	    1.5250460000 	    0.4435900000
H   	   -5.3861990000 	    0.0875580000 	    0.2030110000
H   	   -5.0617270000 	   -1.5341200000 	    0.8313450000
H   	   -5.1819950000 	   -1.2737850000 	   -0.9103640000
H   	   -2.8114810000 	   -2.5541360000 	   -0.6546450000
H   	   -0.4254310000 	   -2.1382940000 	   -0.7757220000
