35
tauto -912.097386945
C   	    0.1854910000 	    3.5354080000 	    0.0001130000
C   	    0.6436390000 	    2.1177370000 	   -0.0001190000
C   	   -0.1897090000 	    0.9324070000 	   -0.0004360000
C   	    0.7438510000 	   -0.2031000000 	   -0.0004890000
O   	    0.4576520000 	   -1.4034480000 	   -0.0005750000
N   	   -1.4902430000 	    0.8931340000 	   -0.0003760000
N   	   -2.0639870000 	   -0.2788680000 	   -0.0006260000
C   	   -3.4646360000 	   -0.4076980000 	   -0.0001120000
C   	   -4.0019730000 	   -1.6944720000 	    0.0006800000
C   	   -5.3813380000 	   -1.8626920000 	    0.0011000000
C   	   -6.2251260000 	   -0.7560810000 	    0.0007160000
C   	   -5.6765870000 	    0.5243440000 	   -0.0001560000
C   	   -4.2999840000 	    0.7089510000 	   -0.0006280000
N   	    1.8934330000 	    1.7903500000 	    0.0000060000
N   	    1.9803520000 	    0.3958200000 	   -0.0003070000
C   	    3.2628670000 	   -0.2086930000 	   -0.0000630000
C   	    3.3954870000 	   -1.5994040000 	   -0.0009870000
C   	    4.6683480000 	   -2.1604370000 	   -0.0007010000
C   	    5.8044680000 	   -1.3586970000 	    0.0004380000
C   	    5.6587500000 	    0.0253790000 	    0.0013150000
C   	    4.3970040000 	    0.6060970000 	    0.0010670000
H   	   -0.4289600000 	    3.7414740000 	   -0.8823960000
H   	    1.0495920000 	    4.2032500000 	   -0.0000610000
H   	   -0.4284820000 	    3.7413440000 	    0.8829810000
H   	   -1.4655920000 	   -1.1099220000 	   -0.0004140000
H   	   -3.3404600000 	   -2.5582770000 	    0.0009720000
H   	   -5.7966410000 	   -2.8668740000 	    0.0017270000
H   	   -7.3031290000 	   -0.8901490000 	    0.0010860000
H   	   -6.3283750000 	    1.3941530000 	   -0.0005240000
H   	   -3.8640970000 	    1.7021220000 	   -0.0013920000
H   	    2.5124220000 	   -2.2259040000 	   -0.0018390000
H   	    4.7659160000 	   -3.2431650000 	   -0.0014200000
H   	    6.7940190000 	   -1.8076410000 	    0.0006730000
H   	    6.5364610000 	    0.6668810000 	    0.0021800000
H   	    4.2759160000 	    1.6829490000 	    0.0017120000
