31
tauto -801.423552802
O   	    0.0889340000 	    2.7689940000 	   -0.0003850000
C   	    1.0355070000 	    1.9657150000 	   -0.0002260000
C   	    2.4188540000 	    2.4406250000 	    0.0000520000
C   	    3.4536460000 	    1.5818700000 	    0.0003740000
C   	    3.2810240000 	    0.1384240000 	    0.0002650000
C   	    1.9822430000 	   -0.4041790000 	   -0.0001020000
C   	    1.8331210000 	   -1.7980500000 	   -0.0004290000
C   	    2.9423290000 	   -2.6262330000 	   -0.0002820000
C   	    4.2329710000 	   -2.0871490000 	    0.0001800000
C   	    4.3947280000 	   -0.7141530000 	    0.0004160000
C   	    0.8260230000 	    0.5064880000 	   -0.0002190000
N   	   -0.3648630000 	   -0.0484140000 	   -0.0001370000
N   	   -1.4410090000 	    0.6831780000 	   -0.0001290000
C   	   -2.7172700000 	    0.0951820000 	   -0.0000140000
C   	   -3.8238320000 	    0.9452430000 	    0.0001270000
C   	   -5.1051680000 	    0.4079690000 	    0.0002320000
C   	   -5.2901800000 	   -0.9713120000 	    0.0002230000
C   	   -4.1786940000 	   -1.8111930000 	    0.0001070000
C   	   -2.8918490000 	   -1.2887650000 	   -0.0000160000
H   	    2.5547880000 	    3.5178320000 	    0.0000110000
H   	    4.4739300000 	    1.9629110000 	    0.0006300000
H   	    0.8328120000 	   -2.2190790000 	   -0.0008160000
H   	    2.8059070000 	   -3.7047530000 	   -0.0005630000
H   	    5.1001190000 	   -2.7418770000 	    0.0003210000
H   	    5.3916510000 	   -0.2777270000 	    0.0007620000
H   	   -1.3225970000 	    1.7016380000 	   -0.0003490000
H   	   -3.6769170000 	    2.0232030000 	    0.0001700000
H   	   -5.9629980000 	    1.0752980000 	    0.0003280000
H   	   -6.2926400000 	   -1.3899200000 	    0.0003230000
H   	   -4.3136630000 	   -2.8897970000 	    0.0000670000
H   	   -2.0214740000 	   -1.9359060000 	   -0.0000670000
