38
tauto -864.015319032
C   	    3.2208510000 	    2.8238350000 	   -0.3386930000
C   	    1.7206660000 	    2.7064050000 	   -0.0854780000
C   	    1.0577940000 	    1.4567400000 	   -0.4692230000
C   	    1.8341540000 	    0.3792930000 	   -1.1994990000
C   	    2.1790180000 	   -0.8731310000 	   -0.3999150000
C   	    2.3026530000 	   -2.1056610000 	   -1.0472200000
C   	    2.6487920000 	   -3.2543480000 	   -0.3407550000
C   	    2.8752550000 	   -3.1864210000 	    1.0304330000
C   	    2.7482380000 	   -1.9654050000 	    1.6868360000
C   	    2.3989490000 	   -0.8202120000 	    0.9780290000
C   	   -0.2751930000 	    1.2150270000 	   -0.1848860000
N   	   -0.8114960000 	   -0.0237720000 	   -0.4689590000
C   	   -2.1263150000 	   -0.4026050000 	   -0.2674040000
C   	   -2.5511330000 	   -1.6998920000 	   -0.5839260000
C   	   -3.8725300000 	   -2.0529780000 	   -0.3797440000
C   	   -4.7889370000 	   -1.1284120000 	    0.1377610000
C   	   -4.3651250000 	    0.1490870000 	    0.4539610000
C   	   -3.0300750000 	    0.5310750000 	    0.2603200000
C   	   -2.5101970000 	    1.8391790000 	    0.5878160000
C   	   -1.2178880000 	    2.1653210000 	    0.3904860000
O   	    1.1580300000 	    3.6652860000 	    0.4390440000
H   	    3.7772890000 	    1.9658480000 	    0.0554210000
H   	    3.5676150000 	    3.7374170000 	    0.1468460000
H   	    3.4358290000 	    2.8955440000 	   -1.4115680000
H   	    2.7674740000 	    0.7962110000 	   -1.5887790000
H   	    1.2778980000 	    0.0701150000 	   -2.0986960000
H   	    2.1327970000 	   -2.1640010000 	   -2.1220260000
H   	    2.7407630000 	   -4.2035710000 	   -0.8630060000
H   	    3.1439570000 	   -4.0814970000 	    1.5855180000
H   	    2.9165140000 	   -1.9037890000 	    2.7591790000
H   	    2.2798840000 	    0.1279940000 	    1.4980070000
H   	   -0.1734750000 	   -0.7560260000 	   -0.7491190000
H   	   -1.8387690000 	   -2.4180050000 	   -0.9850890000
H   	   -4.1996010000 	   -3.0599240000 	   -0.6251800000
H   	   -5.8249520000 	   -1.4156110000 	    0.2916270000
H   	   -5.0636730000 	    0.8771350000 	    0.8611170000
H   	   -3.1944490000 	    2.5737670000 	    1.0074620000
H   	   -0.8227330000 	    3.1411400000 	    0.6352450000
