41
tauto -1139.8743875
C   	   -6.4825190000 	   -1.2309390000 	    0.9874300000
C   	   -5.7376700000 	   -1.7145290000 	   -0.2422010000
O   	   -4.3218530000 	   -1.4960420000 	   -0.1113140000
C   	   -3.8927920000 	   -0.2636880000 	   -0.3990070000
C   	   -2.4176420000 	   -0.1713130000 	   -0.2366130000
C   	   -1.4286220000 	   -1.2301200000 	    0.1061410000
C   	   -0.1470610000 	   -0.4604120000 	    0.0828040000
N   	    0.9917350000 	   -1.0538650000 	    0.0975420000
N   	    2.1292880000 	   -0.4291460000 	   -0.1315200000
C   	    3.3463120000 	   -1.1323260000 	   -0.1235200000
C   	    4.5182620000 	   -0.4192740000 	   -0.3773650000
C   	    5.7399810000 	   -1.0808370000 	   -0.3777860000
C   	    5.8001740000 	   -2.4479330000 	   -0.1246710000
C   	    4.6232930000 	   -3.1483060000 	    0.1293120000
C   	    3.3931160000 	   -2.5026120000 	    0.1324800000
O   	   -1.5732980000 	   -2.4117220000 	    0.3146470000
N   	   -1.8464320000 	    0.9872790000 	   -0.3600230000
N   	   -0.5103310000 	    0.8726390000 	   -0.1928330000
C   	    0.2253160000 	    2.0674450000 	    0.0266980000
C   	    0.0134100000 	    3.1558040000 	   -0.8200120000
C   	    0.7229300000 	    4.3300120000 	   -0.6103210000
C   	    1.6535300000 	    4.4192980000 	    0.4242280000
C   	    1.8546850000 	    3.3325230000 	    1.2672950000
C   	    1.1304020000 	    2.1562310000 	    1.0842330000
O   	   -4.5948750000 	    0.6539010000 	   -0.7519910000
H   	   -7.5470670000 	   -1.4709310000 	    0.8960190000
H   	   -6.3811840000 	   -0.1474490000 	    1.0928910000
H   	   -6.0938840000 	   -1.7158860000 	    1.8879940000
H   	   -6.0905860000 	   -1.2069600000 	   -1.1439370000
H   	   -5.8317800000 	   -2.7947710000 	   -0.3715780000
H   	    2.1488100000 	    0.5567620000 	   -0.3666270000
H   	    4.4717150000 	    0.6511280000 	   -0.5710090000
H   	    6.6499990000 	   -0.5210310000 	   -0.5771250000
H   	    6.7561850000 	   -2.9636470000 	   -0.1251800000
H   	    4.6595740000 	   -4.2164730000 	    0.3271790000
H   	    2.4712220000 	   -3.0401850000 	    0.3270680000
H   	   -0.7144470000 	    3.0698120000 	   -1.6207960000
H   	    0.5551110000 	    5.1794580000 	   -1.2667170000
H   	    2.2119760000 	    5.3385720000 	    0.5767540000
H   	    2.5633090000 	    3.3995770000 	    2.0882910000
H   	    1.2508160000 	    1.3204220000 	    1.7691410000
