21
tauto -661.610684127
O   	   -2.9212690000 	    2.0482180000 	   -0.0001060000
C   	   -2.9126630000 	    0.8511920000 	   -0.0000470000
O   	   -4.0691270000 	    0.0949870000 	   -0.0000520000
N   	   -3.7695750000 	   -1.2704310000 	    0.0000550000
C   	   -2.4922780000 	   -1.4158090000 	    0.0001110000
C   	   -1.8114980000 	   -0.1337140000 	    0.0000420000
N   	   -0.5739110000 	    0.2346440000 	   -0.0000420000
N   	    0.3819810000 	   -0.6551100000 	   -0.0000010000
C   	    1.7407450000 	   -0.2764110000 	    0.0000230000
C   	    2.1132800000 	    1.0667310000 	    0.0001150000
C   	    3.4643690000 	    1.3894040000 	    0.0000990000
C   	    4.4382470000 	    0.3933970000 	   -0.0000070000
C   	    4.0517840000 	   -0.9429440000 	   -0.0001030000
C   	    2.7040710000 	   -1.2830880000 	   -0.0000970000
H   	   -2.0910830000 	   -2.4234190000 	    0.0002500000
H   	    0.1670250000 	   -1.6481180000 	    0.0001480000
H   	    1.3481830000 	    1.8355110000 	    0.0001980000
H   	    3.7572400000 	    2.4358640000 	    0.0001720000
H   	    5.4917780000 	    0.6575790000 	   -0.0000180000
H   	    4.8009260000 	   -1.7298850000 	   -0.0001890000
H   	    2.4032730000 	   -2.3294300000 	   -0.0001950000
