31
tauto -801.410111271
O   	   -4.5317480000 	   -1.8331060000 	   -0.0004490000
C   	   -3.3808910000 	   -1.4255920000 	   -0.0001920000
C   	   -2.2417220000 	   -2.3678850000 	    0.0000580000
C   	   -0.9686610000 	   -1.9479620000 	    0.0001920000
C   	   -3.0459850000 	    0.0235010000 	   -0.0000790000
C   	   -4.0942520000 	    0.9484220000 	   -0.0001400000
C   	   -3.8282130000 	    2.3061040000 	    0.0000090000
C   	   -2.5013900000 	    2.7460140000 	    0.0002220000
C   	   -1.4562580000 	    1.8370400000 	    0.0002750000
C   	   -1.7125410000 	    0.4603580000 	    0.0001140000
C   	   -0.6116900000 	   -0.5290760000 	    0.0001580000
N   	    0.5965340000 	   -0.0607690000 	    0.0001270000
N   	    1.6563850000 	   -0.8515190000 	    0.0002500000
C   	    2.9555830000 	   -0.3265380000 	    0.0000860000
C   	    4.0302020000 	   -1.2183170000 	    0.0001690000
C   	    5.3323760000 	   -0.7342590000 	   -0.0000050000
C   	    5.5759130000 	    0.6357070000 	   -0.0002600000
C   	    4.4980040000 	    1.5174730000 	   -0.0003470000
C   	    3.1900460000 	    1.0493920000 	   -0.0001750000
H   	   -2.4987780000 	   -3.4232630000 	    0.0000480000
H   	   -0.1823740000 	   -2.6995900000 	    0.0002590000
H   	   -5.1102130000 	    0.5638470000 	   -0.0003060000
H   	   -4.6425850000 	    3.0254690000 	   -0.0000320000
H   	   -2.2842190000 	    3.8113420000 	    0.0003640000
H   	   -0.4264750000 	    2.1796540000 	    0.0004540000
H   	    1.5605130000 	   -1.8595950000 	    0.0004510000
H   	    3.8463360000 	   -2.2915000000 	    0.0003600000
H   	    6.1610310000 	   -1.4376170000 	    0.0000590000
H   	    6.5945060000 	    1.0129670000 	   -0.0004070000
H   	    4.6745350000 	    2.5901470000 	   -0.0005590000
H   	    2.3481490000 	    1.7327150000 	   -0.0002540000
