35
tauto -912.060662277
C   	   -0.6108370000 	   -1.6073020000 	   -0.0104960000
C   	   -0.7604200000 	   -0.1369490000 	   -0.2039750000
N   	   -1.9841220000 	    0.4439090000 	   -0.3881050000
C   	   -3.2602000000 	   -0.1095730000 	   -0.0874140000
C   	   -4.0796310000 	    0.4916770000 	    0.8675570000
C   	   -5.3344310000 	   -0.0486360000 	    1.1256370000
C   	   -5.7677400000 	   -1.1847270000 	    0.4473770000
C   	   -4.9451890000 	   -1.7754910000 	   -0.5073420000
C   	   -3.6970310000 	   -1.2319550000 	   -0.7898530000
N   	   -1.8365140000 	    1.8297830000 	   -0.2895690000
C   	   -0.4573140000 	    2.1442000000 	   -0.2976360000
O   	   -0.0307240000 	    3.2738280000 	   -0.4164080000
C   	    0.2035330000 	    0.8483050000 	   -0.1716150000
N   	    1.5854470000 	    0.7786770000 	   -0.0446720000
N   	    2.0836430000 	   -0.3655400000 	   -0.1494670000
C   	    3.5015440000 	   -0.3909840000 	    0.0167100000
C   	    4.2812040000 	    0.7357040000 	    0.2932230000
C   	    5.6547900000 	    0.5968000000 	    0.4325090000
C   	    6.2568450000 	   -0.6551520000 	    0.2997090000
C   	    5.4783660000 	   -1.7748640000 	    0.0243990000
C   	    4.1010500000 	   -1.6414690000 	   -0.1169200000
H   	    0.2645740000 	   -1.7981950000 	    0.6106070000
H   	   -0.4265710000 	   -2.1014820000 	   -0.9707830000
H   	   -1.5043560000 	   -2.0442800000 	    0.4426580000
H   	   -3.7256950000 	    1.3714110000 	    1.3964390000
H   	   -5.9736960000 	    0.4186050000 	    1.8698480000
H   	   -6.7474400000 	   -1.6048210000 	    0.6570140000
H   	   -5.2819730000 	   -2.6541000000 	   -1.0506560000
H   	   -3.0646380000 	   -1.6634360000 	   -1.5607910000
H   	   -2.4239670000 	    2.3538690000 	   -0.9282260000
H   	    3.7938790000 	    1.7004340000 	    0.3923580000
H   	    6.2641490000 	    1.4710880000 	    0.6474160000
H   	    7.3334370000 	   -0.7550650000 	    0.4121790000
H   	    5.9431270000 	   -2.7517150000 	   -0.0811510000
H   	    3.4685500000 	   -2.4982480000 	   -0.3341760000
