23
tauto -646.620956234
O   	    3.7220760000 	   -1.8108710000 	   -0.0002530000
C   	    2.8847540000 	   -0.9164950000 	   -0.0000870000
C   	    3.2783100000 	    0.5105760000 	    0.0003470000
C   	    2.3647590000 	    1.4923540000 	    0.0004320000
C   	    1.4444450000 	   -1.1941440000 	   -0.0002570000
C   	    0.5125510000 	   -0.2117120000 	   -0.0001020000
C   	    0.9431490000 	    1.1911140000 	    0.0000840000
N   	    0.1310420000 	    2.2088020000 	   -0.0000740000
N   	   -1.1736610000 	    1.9710750000 	   -0.0005270000
C   	   -1.7622820000 	    0.7209650000 	   -0.0002340000
C   	   -0.9390500000 	   -0.4138230000 	   -0.0000170000
C   	   -1.5572710000 	   -1.6746870000 	    0.0003450000
C   	   -2.9327180000 	   -1.7958970000 	    0.0003910000
C   	   -3.7370160000 	   -0.6471160000 	    0.0000940000
C   	   -3.1605420000 	    0.6057040000 	   -0.0002130000
H   	    4.3454120000 	    0.7136480000 	    0.0005570000
H   	    2.6377340000 	    2.5443390000 	    0.0006870000
H   	    1.1767760000 	   -2.2466550000 	   -0.0004940000
H   	   -1.7464490000 	    2.8012510000 	   -0.0002070000
H   	   -0.9392190000 	   -2.5676270000 	    0.0006180000
H   	   -3.3918230000 	   -2.7799470000 	    0.0006820000
H   	   -4.8194530000 	   -0.7411540000 	    0.0001250000
H   	   -3.7757910000 	    1.5029360000 	   -0.0004230000
