37
tauto -750.929155323
C   	    4.4855480000 	    1.2366350000 	    0.5835290000
C   	    3.6976110000 	   -0.0262610000 	    0.2035220000
C   	    4.4554980000 	   -0.7166730000 	   -0.9455410000
C   	    3.6281660000 	   -0.9233360000 	    1.4492970000
C   	    2.2952070000 	    0.4324500000 	   -0.2942060000
C   	    1.1314430000 	   -0.4753460000 	   -0.2750320000
C   	    1.2734200000 	   -1.9792300000 	   -0.3584050000
C   	   -0.1482080000 	    0.0329590000 	   -0.1921400000
N   	   -1.2176350000 	   -0.8456460000 	   -0.1311250000
C   	   -2.5531150000 	   -0.5004260000 	   -0.0231000000
C   	   -3.5465840000 	   -1.4864720000 	    0.0189140000
C   	   -4.8757420000 	   -1.1150290000 	    0.1261300000
C   	   -5.2367440000 	    0.2352860000 	    0.1934490000
C   	   -4.2522170000 	    1.2070850000 	    0.1527100000
C   	   -2.9005370000 	    0.8566590000 	    0.0454530000
C   	   -1.8178770000 	    1.8161890000 	    0.0063010000
C   	   -0.5308300000 	    1.4397260000 	   -0.1076140000
O   	    2.1965280000 	    1.5941640000 	   -0.6799610000
H   	    5.4959100000 	    0.9574550000 	    0.9055180000
H   	    3.9988720000 	    1.7717300000 	    1.4061350000
H   	    4.5580180000 	    1.9255410000 	   -0.2600910000
H   	    5.4818170000 	   -0.9393350000 	   -0.6292140000
H   	    4.5071040000 	   -0.0544500000 	   -1.8168910000
H   	    3.9995050000 	   -1.6581390000 	   -1.2668430000
H   	    4.6390940000 	   -1.0722340000 	    1.8472690000
H   	    3.2064790000 	   -1.9125910000 	    1.2589970000
H   	    3.0295040000 	   -0.4489920000 	    2.2358750000
H   	    2.2934590000 	   -2.2909240000 	   -0.5716910000
H   	    0.6645790000 	   -2.3831640000 	   -1.1814220000
H   	    0.9676490000 	   -2.4977440000 	    0.5640870000
H   	   -1.0118800000 	   -1.8323480000 	   -0.1520860000
H   	   -3.2690300000 	   -2.5373660000 	   -0.0354870000
H   	   -5.6433340000 	   -1.8836830000 	    0.1574010000
H   	   -6.2822620000 	    0.5166630000 	    0.2783130000
H   	   -4.5156940000 	    2.2614450000 	    0.2057620000
H   	   -2.0659910000 	    2.8735200000 	    0.0708040000
H   	    0.2671960000 	    2.1655240000 	   -0.1584810000
