15
tauto -620.041049827
O   	    3.3238020000 	   -0.5720440000 	    0.0000020000
N   	    2.6548680000 	    0.5978090000 	    0.0001240000
C   	    1.3671720000 	    0.5000490000 	    0.0000350000
C   	    0.6773480000 	    1.8046510000 	    0.0000110000
C   	   -0.6553040000 	    1.9513180000 	   -0.0000360000
C   	   -1.4631540000 	    0.7445980000 	   -0.0000280000
N   	   -2.7604240000 	    0.6146510000 	    0.0000520000
O   	   -2.9787000000 	   -0.7315830000 	    0.0000160000
N   	   -1.8348340000 	   -1.4409520000 	   -0.0000130000
C   	   -0.8814860000 	   -0.5519990000 	   -0.0000790000
C   	    0.5845960000 	   -0.7945870000 	   -0.0002380000
O   	    1.0743470000 	   -1.8993770000 	    0.0000800000
H   	    4.2510940000 	   -0.2926760000 	   -0.0000340000
H   	    1.3357880000 	    2.6683420000 	    0.0000990000
H   	   -1.1347710000 	    2.9236310000 	    0.0000100000
