14
tauto -436.642995964
O   	   -3.0056370000 	   -0.5235080000 	    0.0001510000
N   	   -2.1947880000 	    0.5807030000 	   -0.0001010000
C   	   -0.9420900000 	    0.2784690000 	   -0.0003190000
C   	   -0.0162030000 	    1.4137510000 	    0.0000650000
C   	    1.3087900000 	    1.2256060000 	    0.0000180000
C   	   -0.3925420000 	   -1.0812930000 	   -0.0000440000
C   	    0.9324950000 	   -1.2713670000 	   -0.0000530000
C   	    1.8919690000 	   -0.1363010000 	    0.0000900000
O   	    3.0968010000 	   -0.3234750000 	    0.0000590000
H   	   -3.8938910000 	   -0.1429210000 	    0.0004920000
H   	   -0.4634010000 	    2.4040880000 	    0.0001210000
H   	    2.0145690000 	    2.0508210000 	   -0.0000170000
H   	   -1.0918010000 	   -1.9103470000 	   -0.0000060000
H   	    1.3742040000 	   -2.2638870000 	   -0.0001030000
