32
tauto -967.814495805
O   	   -4.5457770000 	   -0.7686100000 	    0.3091000000
N   	   -3.5419300000 	   -1.5318650000 	   -0.1670170000
C   	   -2.3941360000 	   -0.9747820000 	   -0.0893790000
C   	   -1.1694310000 	   -1.6991860000 	   -0.5262790000
N   	   -0.1217410000 	   -0.7959970000 	   -0.3304110000
C   	    1.1835230000 	   -1.2429000000 	    0.0432300000
C   	    1.8153080000 	   -2.1969230000 	   -0.7538870000
C   	    3.0807470000 	   -2.6497300000 	   -0.3981580000
C   	    3.7242190000 	   -2.1442800000 	    0.7272960000
C   	    3.0891730000 	   -1.1828770000 	    1.5067180000
C   	    1.8173580000 	   -0.7304490000 	    1.1738250000
N   	   -0.5996620000 	    0.4065620000 	    0.2501500000
C   	    0.0910360000 	    1.6180830000 	   -0.0626310000
C   	    0.9611910000 	    1.6839790000 	   -1.1496330000
C   	    1.6208390000 	    2.8768410000 	   -1.4236160000
C   	    1.4119210000 	    3.9993340000 	   -0.6288710000
C   	    0.5402960000 	    3.9217320000 	    0.4529240000
C   	   -0.1157120000 	    2.7325640000 	    0.7499080000
O   	   -1.0576480000 	   -2.8360630000 	   -0.9171410000
C   	   -1.9900530000 	    0.3783840000 	    0.3865100000
O   	   -2.6781660000 	    1.2990520000 	    0.7584220000
H   	   -5.3291040000 	   -1.3231940000 	    0.1786610000
H   	    1.3092580000 	   -2.5875140000 	   -1.6289630000
H   	    3.5683960000 	   -3.3994020000 	   -1.0155230000
H   	    4.7175500000 	   -2.4953060000 	    0.9931350000
H   	    3.5822700000 	   -0.7794590000 	    2.3870610000
H   	    1.3223870000 	    0.0166780000 	    1.7857240000
H   	    1.1232660000 	    0.8104830000 	   -1.7727910000
H   	    2.3016160000 	    2.9246530000 	   -2.2693200000
H   	    1.9290090000 	    4.9292350000 	   -0.8489700000
H   	    0.3712610000 	    4.7919200000 	    1.0814870000
H   	   -0.7975110000 	    2.6672290000 	    1.5896750000
