37
tauto -954.994109079
O   	   -4.5271370000 	    0.1625080000 	    0.2556260000
C   	   -3.1792980000 	    0.1256730000 	    0.1149860000
C   	   -2.4054360000 	    1.2933670000 	   -0.0200170000
C   	   -3.0211090000 	    2.5838140000 	   -0.0979980000
C   	   -2.2812440000 	    3.7164800000 	   -0.2364930000
C   	   -0.8658540000 	    3.6207110000 	   -0.3174560000
C   	   -0.2400840000 	    2.4122460000 	   -0.2516750000
C   	   -0.9753890000 	    1.1896140000 	   -0.0950850000
C   	   -2.5959720000 	   -1.1486650000 	    0.0860810000
C   	   -3.4007470000 	   -2.3276800000 	    0.1816060000
C   	   -2.8260840000 	   -3.5600780000 	    0.1389930000
C   	   -1.4132010000 	   -3.6798840000 	    0.0009400000
C   	   -0.6190800000 	   -2.5756490000 	   -0.0756880000
C   	   -1.1809780000 	   -1.2577250000 	   -0.0352390000
C   	   -0.3750530000 	   -0.0936200000 	   -0.0764550000
N   	    1.0056480000 	   -0.3688130000 	   -0.1565310000
N   	    1.7981430000 	    0.4902370000 	    0.2821990000
C   	    3.1729970000 	    0.1373720000 	    0.1321380000
C   	    4.0752670000 	    0.9108050000 	    0.8600760000
C   	    5.4388220000 	    0.6497040000 	    0.7812910000
C   	    5.9018940000 	   -0.3752700000 	   -0.0382450000
C   	    4.9984790000 	   -1.1394280000 	   -0.7771920000
C   	    3.6357040000 	   -0.8883280000 	   -0.6961160000
H   	   -4.8144900000 	    1.0653200000 	    0.4350300000
H   	   -4.1056580000 	    2.6788160000 	   -0.0904140000
H   	   -2.7670050000 	    4.6857650000 	   -0.3055820000
H   	   -0.2755700000 	    4.5242410000 	   -0.4457090000
H   	    0.8377960000 	    2.3613350000 	   -0.3090660000
H   	   -4.4742190000 	   -2.2112120000 	    0.2864330000
H   	   -3.4387790000 	   -4.4548320000 	    0.2086730000
H   	   -0.9633890000 	   -4.6687670000 	   -0.0407710000
H   	    0.4557280000 	   -2.6721180000 	   -0.1735120000
H   	    3.6854870000 	    1.7074730000 	    1.4880330000
H   	    6.1395930000 	    1.2493840000 	    1.3561910000
H   	    6.9678380000 	   -0.5761350000 	   -0.1092630000
H   	    5.3624120000 	   -1.9326630000 	   -1.4254030000
H   	    2.9190270000 	   -1.4673920000 	   -1.2700300000
