31
tauto -801.398556535
O   	   -0.0395140000 	    2.2738950000 	   -0.0000650000
C   	    0.8352480000 	    1.3684030000 	    0.0000220000
C   	    2.2386860000 	    1.6380820000 	    0.0001730000
C   	    3.1822980000 	    0.6334860000 	    0.0001170000
C   	    4.5982200000 	    0.9241480000 	    0.0001830000
C   	    5.5175590000 	   -0.0701550000 	    0.0000750000
C   	    5.1224150000 	   -1.4560680000 	   -0.0001140000
C   	    3.8100090000 	   -1.7840020000 	   -0.0001730000
C   	    2.7884140000 	   -0.7646490000 	   -0.0000640000
C   	    1.4504900000 	   -1.0715100000 	   -0.0001190000
C   	    0.4593040000 	   -0.0546800000 	    0.0000110000
N   	   -0.8099870000 	   -0.4831120000 	   -0.0000540000
N   	   -1.7459920000 	    0.3967160000 	   -0.0000950000
C   	   -3.1042150000 	    0.0196020000 	   -0.0000440000
C   	   -4.0548030000 	    1.0390840000 	   -0.0002090000
C   	   -5.4058730000 	    0.7138640000 	   -0.0001330000
C   	   -5.8058840000 	   -0.6191190000 	    0.0000920000
C   	   -4.8455870000 	   -1.6291350000 	    0.0002410000
C   	   -3.4921180000 	   -1.3197700000 	    0.0001770000
H   	    2.5375320000 	    2.6829400000 	    0.0002900000
H   	    4.9057560000 	    1.9671860000 	    0.0003090000
H   	    6.5774250000 	    0.1727460000 	    0.0001210000
H   	    5.8871420000 	   -2.2275030000 	   -0.0002120000
H   	    3.4932620000 	   -2.8250560000 	   -0.0003200000
H   	    1.1101720000 	   -2.1049110000 	   -0.0002000000
H   	   -1.4371930000 	    1.3942670000 	   -0.0000740000
H   	   -3.7336750000 	    2.0782290000 	   -0.0003880000
H   	   -6.1476950000 	    1.5076280000 	   -0.0002520000
H   	   -6.8626910000 	   -0.8710020000 	    0.0001530000
H   	   -5.1534260000 	   -2.6713700000 	    0.0004200000
H   	   -2.7336180000 	   -2.0950430000 	    0.0002970000
