33
tauto -856.764287435
N   	   -6.2841430000 	   -1.0411060000 	   -0.0540610000
C   	   -4.9652630000 	   -0.5851510000 	   -0.0032850000
C   	   -3.8949220000 	   -1.4888110000 	    0.0019110000
C   	   -2.5818120000 	   -1.0453800000 	   -0.0001430000
C   	   -4.6772980000 	    0.7837530000 	   -0.0137370000
C   	   -3.3645370000 	    1.2317330000 	   -0.0164830000
C   	   -2.3095850000 	    0.3216010000 	   -0.0088320000
N   	   -0.9951480000 	    0.8274390000 	   -0.0080950000
N   	    0.0301780000 	    0.0352930000 	   -0.0061750000
C   	    1.2560400000 	    0.5226630000 	   -0.0023640000
C   	    2.3548490000 	   -0.4521520000 	   -0.0019400000
C   	    2.1255870000 	   -1.8361980000 	   -0.0098580000
C   	    3.1839160000 	   -2.7271020000 	   -0.0090050000
C   	    4.5048250000 	   -2.2645480000 	   -0.0002880000
C   	    4.7459910000 	   -0.9039390000 	    0.0071450000
C   	    3.6838840000 	    0.0132140000 	    0.0062730000
C   	    3.9385160000 	    1.4432200000 	    0.0132550000
C   	    2.9525780000 	    2.3585540000 	    0.0116030000
C   	    1.5449970000 	    1.9625820000 	    0.0030150000
O   	    0.6441550000 	    2.8206130000 	    0.0014930000
H   	   -6.4232160000 	   -1.9666160000 	    0.3269210000
H   	   -6.9677990000 	   -0.3904810000 	    0.3069480000
H   	   -4.0980960000 	   -2.5578100000 	    0.0022890000
H   	   -1.7597380000 	   -1.7533440000 	    0.0060890000
H   	   -5.4911780000 	    1.5054560000 	   -0.0253420000
H   	   -3.1582570000 	    2.2999870000 	   -0.0234400000
H   	   -0.8111100000 	    1.8379460000 	   -0.0078430000
H   	    1.1020610000 	   -2.1974400000 	   -0.0172900000
H   	    2.9853990000 	   -3.7960020000 	   -0.0156200000
H   	    5.3320320000 	   -2.9690630000 	    0.0002370000
H   	    5.7666960000 	   -0.5259860000 	    0.0136430000
H   	    4.9786710000 	    1.7662490000 	    0.0196760000
H   	    3.1484900000 	    3.4265860000 	    0.0164980000
