12
tauto -509.672250926
O   	   -2.4347660000 	   -0.7303640000 	    0.0001800000
N   	   -1.1989990000 	   -1.2602640000 	    0.0000510000
C   	   -0.2619360000 	   -0.3873320000 	   -0.0000470000
C   	    1.1676090000 	   -0.7863650000 	   -0.0000290000
C   	    1.9332520000 	    0.5302830000 	    0.0002610000
O   	    0.9563570000 	    1.5742230000 	    0.0000300000
O   	    1.6521060000 	   -1.8891510000 	   -0.0002440000
C   	   -0.3238750000 	    1.1075960000 	   -0.0000710000
O   	   -1.2743710000 	    1.8334330000 	   -0.0002350000
H   	   -3.0145130000 	   -1.5068120000 	    0.0001430000
H   	    2.5615990000 	    0.6192860000 	   -0.8910850000
H   	    2.5609980000 	    0.6191590000 	    0.8920490000
