27
tauto -594.923492111
O   	   -1.9504750000 	    2.2435020000 	   -0.3665530000
C   	   -2.1444990000 	    1.0641210000 	   -0.1325940000
C   	   -0.9853600000 	    0.1428410000 	    0.1101250000
N   	    0.2191730000 	    0.8136530000 	    0.0123730000
C   	    1.5233300000 	    0.3187400000 	   -0.0081260000
C   	    2.5607510000 	    1.1811930000 	    0.3732300000
C   	    3.8820350000 	    0.7608080000 	    0.3322330000
C   	    4.2011610000 	   -0.5317420000 	   -0.0779350000
C   	    3.1758870000 	   -1.3873880000 	   -0.4640880000
C   	    1.8475910000 	   -0.9730820000 	   -0.4384850000
C   	   -1.2028570000 	   -1.1389630000 	    0.4640750000
C   	   -2.5709670000 	   -1.7658710000 	    0.5054250000
C   	   -3.5789940000 	   -0.9955650000 	   -0.3441440000
C   	   -3.5351090000 	    0.4883640000 	    0.0063320000
H   	    0.0998720000 	    1.8148880000 	   -0.0753500000
H   	    2.3161550000 	    2.1868720000 	    0.7091490000
H   	    4.6686980000 	    1.4484290000 	    0.6330140000
H   	    5.2352350000 	   -0.8639540000 	   -0.1005830000
H   	    3.4070750000 	   -2.3941160000 	   -0.8041560000
H   	    1.0685150000 	   -1.6421300000 	   -0.7875170000
H   	   -0.3645490000 	   -1.7638740000 	    0.7593130000
H   	   -2.9261630000 	   -1.8145470000 	    1.5471410000
H   	   -2.5060120000 	   -2.8060740000 	    0.1636380000
H   	   -4.5900620000 	   -1.3909130000 	   -0.1982340000
H   	   -3.3313190000 	   -1.1262400000 	   -1.4053860000
H   	   -3.8358490000 	    0.6339200000 	    1.0547410000
H   	   -4.2098160000 	    1.0934160000 	   -0.6062530000
