12
tauto -265.451050402
C   	   -2.1288040000 	    0.0337320000 	   -0.0002300000
C   	   -0.6352060000 	    0.0956450000 	   -0.0000870000
C   	    0.2452450000 	    1.1555940000 	    0.0003120000
C   	    1.5264760000 	    0.5624090000 	   -0.0004830000
N   	    1.4585990000 	   -0.7599490000 	    0.0003350000
N   	    0.1409540000 	   -1.0168630000 	    0.0001990000
H   	   -0.1656900000 	   -1.9769370000 	    0.0002520000
H   	   -2.5427270000 	    1.0447670000 	   -0.0004840000
H   	   -2.5117090000 	   -0.4845650000 	    0.8861090000
H   	   -2.5115650000 	   -0.4849540000 	   -0.8864080000
H   	   -0.0058740000 	    2.2074040000 	    0.0005010000
H   	    2.4944290000 	    1.0476770000 	   -0.0007810000
