17
tauto -492.981489763
O   	   -3.4314210000 	   -0.4555090000 	    0.0000300000
N   	   -2.1741420000 	   -1.0061090000 	   -0.0000700000
C   	   -1.2613100000 	   -0.1122590000 	   -0.0000700000
C   	    0.1849090000 	   -0.3732520000 	    0.0000210000
C   	    0.9575320000 	   -1.5209310000 	    0.0000380000
C   	    2.3464880000 	   -1.3694770000 	    0.0000090000
C   	    2.9294080000 	   -0.1024400000 	   -0.0000050000
C   	    2.1455680000 	    1.0547340000 	   -0.0000090000
C   	    0.7718300000 	    0.8983690000 	   -0.0000020000
N   	   -0.2044630000 	    1.9436760000 	    0.0000130000
C   	   -1.3551170000 	    1.3749570000 	    0.0000110000
H   	   -4.0113550000 	   -1.2285940000 	    0.0001420000
H   	    0.4977250000 	   -2.5054520000 	    0.0000300000
H   	    2.9819100000 	   -2.2511350000 	   -0.0000010000
H   	    4.0127000000 	   -0.0135040000 	   -0.0000170000
H   	    2.5888270000 	    2.0460490000 	   -0.0000180000
H   	   -2.2840470000 	    1.9355320000 	    0.0000630000
