17
tauto -363.932911583
N   	   -2.0665290000 	   -1.0425660000 	   -0.2006550000
C   	   -0.7480990000 	   -0.6497540000 	   -0.0188470000
C   	    0.3135640000 	   -1.4669910000 	    0.0993180000
C   	    1.7344140000 	   -0.9771730000 	    0.1897310000
C   	    1.8822380000 	    0.4223560000 	   -0.4052610000
C   	    0.8394800000 	    1.3654170000 	    0.1887080000
C   	   -0.5703980000 	    0.8346170000 	    0.0412820000
O   	   -1.5427820000 	    1.5676920000 	    0.0379390000
H   	   -2.3138990000 	   -1.9453770000 	    0.1768690000
H   	   -2.7220120000 	   -0.3082730000 	    0.0356670000
H   	    0.1497330000 	   -2.5444400000 	    0.1215000000
H   	    2.3959150000 	   -1.6785120000 	   -0.3328760000
H   	    2.0707660000 	   -0.9714740000 	    1.2388460000
H   	    1.7414570000 	    0.3643840000 	   -1.4920440000
H   	    2.8903070000 	    0.8142840000 	   -0.2300010000
H   	    0.8694750000 	    2.3655900000 	   -0.2538250000
H   	    1.0190270000 	    1.4894020000 	    1.2673510000
