16
tauto -471.1495564
N   	   -1.4419930000 	    1.4362850000 	   -0.2021550000
C   	   -1.0349150000 	    0.1376610000 	   -0.0311390000
C   	    0.4268230000 	   -0.1104520000 	   -0.0248740000
N   	    1.0196030000 	   -1.2219510000 	   -0.1397930000
C   	    2.4503110000 	   -0.9333750000 	   -0.0338030000
C   	    2.5442110000 	    0.6055010000 	    0.0702140000
O   	    1.1686070000 	    1.0236010000 	    0.1372540000
N   	   -1.8105110000 	   -0.8785980000 	    0.0841610000
O   	   -3.1391820000 	   -0.4383410000 	    0.0571550000
H   	   -0.7718630000 	    2.1488050000 	    0.0417850000
H   	   -2.4036280000 	    1.6148450000 	    0.0467130000
H   	    2.9734260000 	   -1.3270020000 	   -0.9107770000
H   	    2.8583050000 	   -1.4387410000 	    0.8483800000
H   	    2.9996540000 	    1.0736780000 	   -0.8074820000
H   	    3.0510030000 	    0.9596930000 	    0.9713400000
H   	   -3.6305710000 	   -1.2595160000 	    0.1768870000
