11
tauto -434.455273284
O   	    2.3719430000 	   -0.0244290000 	    0.0002720000
N   	    1.4396130000 	   -1.0180630000 	    0.0005900000
C   	    0.2367870000 	   -0.5789660000 	    0.0001970000
C   	   -0.9599400000 	   -1.4079990000 	   -0.0002640000
C   	   -1.9911270000 	   -0.5602350000 	   -0.0000680000
O   	   -1.6336150000 	    0.7703470000 	   -0.0002050000
C   	   -0.2516230000 	    0.8463730000 	   -0.0006350000
O   	    0.3318250000 	    1.8871800000 	    0.0000330000
H   	    3.2078940000 	   -0.5107240000 	   -0.0002100000
H   	   -0.9924250000 	   -2.4876330000 	   -0.0002100000
H   	   -3.0585670000 	   -0.7350230000 	    0.0001070000
