12
tauto -414.599626942
O   	   -2.3865030000 	   -0.0198860000 	   -0.0005360000
N   	   -1.4496910000 	   -1.0131170000 	   -0.0001570000
C   	   -0.2465070000 	   -0.5738180000 	    0.0001090000
C   	    0.9348180000 	   -1.4338560000 	    0.0012090000
C   	    2.0063880000 	   -0.6259490000 	   -0.0000290000
N   	    1.6309700000 	    0.7202790000 	   -0.0022040000
C   	    0.2516810000 	    0.8618220000 	   -0.0002040000
O   	   -0.3590120000 	    1.9051750000 	    0.0013640000
H   	   -3.2188350000 	   -0.5117620000 	   -0.0011640000
H   	    0.9249960000 	   -2.5139870000 	    0.0018370000
H   	    3.0570330000 	   -0.8873550000 	   -0.0003200000
H   	    2.2536980000 	    1.5114740000 	    0.0030300000
