16
tauto -488.164786697
N   	   -1.1206380000 	    1.8444990000 	    0.0006410000
C   	   -0.2410850000 	    0.8209520000 	    0.0001850000
C   	   -0.7670680000 	   -0.5889660000 	    0.0001480000
C   	    0.2499200000 	   -1.6422390000 	    0.0004350000
C   	    1.5458360000 	   -1.3273890000 	    0.0002910000
N   	   -1.9794640000 	   -1.0168880000 	   -0.0001790000
O   	   -2.9549450000 	   -0.0424610000 	   -0.0005960000
N   	    1.0218250000 	    1.1005640000 	    0.0000030000
C   	    1.9782340000 	    0.0818480000 	   -0.0001280000
N   	    3.2332440000 	    0.3239010000 	   -0.0005800000
H   	   -2.1142510000 	    1.6935530000 	    0.0001290000
H   	   -0.7309590000 	    2.7744140000 	    0.0003710000
H   	   -0.1126430000 	   -2.6655600000 	    0.0006920000
H   	    2.3312040000 	   -2.0758550000 	    0.0004420000
H   	   -3.7725980000 	   -0.5563870000 	   -0.0008110000
H   	    3.3590190000 	    1.3397560000 	   -0.0008340000
