28
tauto -632.972069124
C   	    0.0791060000 	   -1.5359090000 	    0.1042220000
C   	   -1.3455980000 	   -1.6669140000 	   -0.3145840000
C   	   -2.2624840000 	   -0.6880470000 	   -0.1307610000
N   	   -1.8961900000 	    0.5654730000 	    0.3676230000
C   	   -2.7844220000 	    1.5756400000 	    0.6207590000
C   	   -4.1087150000 	    1.4249050000 	    0.4041830000
C   	   -4.5570660000 	    0.1715880000 	   -0.1500940000
C   	   -3.6837860000 	   -0.8230030000 	   -0.4156780000
O   	    0.6716560000 	   -0.3649490000 	   -0.4922810000
C   	    1.9835050000 	   -0.1065620000 	   -0.2254220000
C   	    2.5078960000 	    1.0442170000 	   -0.8246780000
C   	    3.8319880000 	    1.3951080000 	   -0.6166100000
C   	    4.6550410000 	    0.6085170000 	    0.1907180000
C   	    4.1303630000 	   -0.5321010000 	    0.7815720000
C   	    2.7989800000 	   -0.8996280000 	    0.5821280000
H   	    0.6505720000 	   -2.4220630000 	   -0.1977500000
H   	    0.1775190000 	   -1.4301060000 	    1.1984210000
H   	   -1.6693450000 	   -2.6010220000 	   -0.7598990000
H   	   -0.9044960000 	    0.7636340000 	    0.3809990000
H   	   -2.3439520000 	    2.4905350000 	    1.0043480000
H   	   -4.8016420000 	    2.2278910000 	    0.6242550000
H   	   -5.6146230000 	    0.0309900000 	   -0.3591540000
H   	   -4.0154380000 	   -1.7678970000 	   -0.8361150000
H   	    1.8555360000 	    1.6410040000 	   -1.4561950000
H   	    4.2278620000 	    2.2901870000 	   -1.0901940000
H   	    5.6933470000 	    0.8839950000 	    0.3523830000
H   	    4.7589570000 	   -1.1562450000 	    1.4121340000
H   	    2.4169350000 	   -1.7964850000 	    1.0571200000
