29
tauto -650.229975207
O   	    2.2968790000 	    2.1304740000 	   -0.7158660000
C   	    2.5367950000 	    1.0441150000 	   -0.2188950000
C   	    1.4649360000 	    0.0122170000 	   -0.1033240000
N   	    0.2057500000 	    0.5036940000 	   -0.4457430000
N   	   -0.7696070000 	   -0.4187360000 	   -0.7824910000
C   	   -2.0748730000 	   -0.1832130000 	   -0.3185630000
C   	   -3.1425300000 	   -0.8269680000 	   -0.9532100000
C   	   -4.4391280000 	   -0.6554200000 	   -0.4868040000
C   	   -4.6943920000 	    0.1601510000 	    0.6126110000
C   	   -3.6297060000 	    0.8014650000 	    1.2383090000
C   	   -2.3260950000 	    0.6379570000 	    0.7824130000
C   	    1.7366570000 	   -1.2324480000 	    0.3194320000
C   	    3.1169650000 	   -1.6852420000 	    0.7121210000
C   	    4.2079710000 	   -0.8041140000 	    0.1032600000
C   	    3.8961790000 	    0.6748750000 	    0.3294800000
H   	    0.2551950000 	    1.3443540000 	   -1.0138980000
H   	   -0.7296310000 	   -0.7229610000 	   -1.7504160000
H   	   -2.9509930000 	   -1.4675100000 	   -1.8127990000
H   	   -5.2579160000 	   -1.1623890000 	   -0.9918050000
H   	   -5.7097870000 	    0.2957890000 	    0.9743050000
H   	   -3.8122190000 	    1.4442100000 	    2.0963540000
H   	   -1.4948280000 	    1.1398190000 	    1.2666460000
H   	    0.9154060000 	   -1.9410820000 	    0.3994900000
H   	    3.2628120000 	   -2.7285800000 	    0.4078390000
H   	    3.2063910000 	   -1.6788380000 	    1.8099420000
H   	    4.2683230000 	   -0.9982850000 	   -0.9754550000
H   	    5.1862020000 	   -1.0528040000 	    0.5290240000
H   	    4.6368600000 	    1.3396290000 	   -0.1241250000
H   	    3.8794860000 	    0.8898950000 	    1.4084880000
