26
tauto -556.835801901
O   	   -0.6708740000 	    2.1781770000 	   -0.0637620000
C   	   -1.2269620000 	    1.0539930000 	   -0.0328630000
C   	   -2.7488140000 	    1.0584810000 	   -0.0007500000
C   	   -3.3785470000 	   -0.2636160000 	    0.4248230000
C   	   -2.7413510000 	   -1.4040230000 	   -0.3607990000
C   	   -1.2551550000 	   -1.5251670000 	   -0.0227570000
C   	   -0.5234320000 	   -0.1933750000 	   -0.0402170000
C   	    0.8772330000 	   -0.1991190000 	   -0.0147850000
N   	    1.5739130000 	    0.9851240000 	   -0.0452510000
C   	    2.9225200000 	    1.0824830000 	   -0.0202150000
C   	    3.7095560000 	   -0.0270990000 	    0.0380470000
C   	    3.0559990000 	   -1.2878560000 	    0.0790220000
C   	    1.6951240000 	   -1.3782780000 	    0.0550900000
H   	   -3.0833690000 	    1.3222440000 	   -1.0141460000
H   	   -3.0494910000 	    1.8899740000 	    0.6450550000
H   	   -4.4630280000 	   -0.2329320000 	    0.2665710000
H   	   -3.2182050000 	   -0.4272730000 	    1.4996130000
H   	   -2.8607590000 	   -1.2080030000 	   -1.4356230000
H   	   -3.2434610000 	   -2.3562800000 	   -0.1530530000
H   	   -0.7944740000 	   -2.2208710000 	   -0.7378220000
H   	   -1.1607110000 	   -2.0033940000 	    0.9660790000
H   	    0.9390490000 	    1.8076040000 	   -0.0785560000
H   	    3.3167820000 	    2.0930850000 	   -0.0504720000
H   	    4.7894350000 	    0.0584790000 	    0.0572310000
H   	    3.6506800000 	   -2.1963800000 	    0.1347480000
H   	    1.2101230000 	   -2.3460660000 	    0.0996610000
