26
tauto -631.67997694
O   	   -0.9834560000 	   -2.4863430000 	    0.0152160000
C   	   -1.4409910000 	   -1.3315750000 	    0.0617160000
C   	   -0.6190140000 	   -0.1768970000 	    0.4992520000
C   	    0.7701680000 	   -0.2047610000 	    0.2815000000
N   	    1.4336900000 	   -1.3867250000 	    0.1785130000
C   	    2.7666490000 	   -1.4813220000 	   -0.0617700000
C   	    3.5142170000 	   -0.3547980000 	   -0.2172630000
C   	    2.8573520000 	    0.9053000000 	   -0.1688800000
C   	    1.5148100000 	    1.0026560000 	    0.0709130000
C   	    0.7452770000 	    2.3073950000 	    0.0584510000
C   	   -0.6987660000 	    2.1320740000 	   -0.4533250000
C   	   -1.3327960000 	    1.0615440000 	    0.3958310000
C   	   -2.6543090000 	    0.8382060000 	    0.7512790000
C   	   -3.3484380000 	    0.1994890000 	   -0.4116620000
C   	   -2.7751450000 	   -1.0116490000 	   -0.5856490000
H   	    0.8042890000 	   -2.2040020000 	    0.2204290000
H   	    3.1687630000 	   -2.4866190000 	   -0.1180500000
H   	    4.5800720000 	   -0.4257270000 	   -0.3998080000
H   	    3.4327190000 	    1.8103640000 	   -0.3544200000
H   	    1.2876900000 	    3.0402310000 	   -0.5493490000
H   	    0.7032840000 	    2.7064620000 	    1.0815640000
H   	   -0.6845310000 	    1.8330660000 	   -1.5120260000
H   	   -1.2392390000 	    3.0794850000 	   -0.3766400000
H   	   -2.6936500000 	    0.1304290000 	    1.5849530000
H   	   -4.1727570000 	    0.5816380000 	   -1.0121550000
H   	   -3.1489110000 	   -1.7814830000 	   -1.2581820000
