24
tauto -630.640501265
O   	   -1.0014580000 	   -2.5227580000 	    0.0000330000
C   	   -1.4914830000 	   -1.2735410000 	    0.0000120000
C   	   -0.6583920000 	   -0.1167230000 	   -0.0001690000
C   	    0.7928240000 	   -0.1921720000 	   -0.0001340000
N   	    1.3834550000 	   -1.4121080000 	   -0.0001980000
C   	    2.7024300000 	   -1.4966960000 	   -0.0000780000
C   	    3.5442110000 	   -0.3789570000 	    0.0001400000
C   	    2.9620970000 	    0.8701370000 	    0.0001850000
C   	    1.5635750000 	    0.9925810000 	    0.0000300000
C   	    0.9026260000 	    2.2703500000 	    0.0000260000
C   	   -0.4450870000 	    2.3435320000 	   -0.0000980000
C   	   -1.2724360000 	    1.1605560000 	   -0.0001440000
C   	   -2.6717350000 	    1.2773520000 	   -0.0000280000
C   	   -3.4555060000 	    0.1400260000 	    0.0001150000
C   	   -2.8729290000 	   -1.1271240000 	    0.0001700000
H   	   -0.0166710000 	   -2.4561600000 	    0.0000720000
H   	    3.1181750000 	   -2.5024390000 	   -0.0002480000
H   	    4.6221120000 	   -0.5058850000 	    0.0002840000
H   	    3.5735860000 	    1.7704500000 	    0.0003750000
H   	    1.5132130000 	    3.1705850000 	    0.0001260000
H   	   -0.9442160000 	    3.3099370000 	   -0.0001130000
H   	   -3.1234230000 	    2.2660440000 	   -0.0000400000
H   	   -4.5392290000 	    0.2274690000 	    0.0001910000
H   	   -3.4772400000 	   -2.0291150000 	    0.0003120000
