34
tauto -636.680054069
O   	    0.9297700000 	   -2.5456340000 	    0.0479130000
C   	    1.4255660000 	   -1.4067140000 	    0.0550460000
C   	    0.6499290000 	   -0.1779480000 	    0.0553860000
C   	   -0.7330080000 	   -0.2324410000 	   -0.0593080000
N   	   -1.3995830000 	   -1.4039820000 	   -0.1418310000
C   	   -2.8251780000 	   -1.6057270000 	    0.0624680000
C   	   -3.6423790000 	   -0.3629840000 	   -0.2589490000
C   	   -2.9754090000 	    0.8576500000 	    0.3641250000
C   	   -1.5733170000 	    1.0288080000 	   -0.2203160000
C   	   -0.8596180000 	    2.2760720000 	    0.2874820000
C   	    0.5532330000 	    2.3374360000 	   -0.2767660000
C   	    1.3735050000 	    1.1571480000 	    0.2347760000
C   	    2.7769240000 	    1.1318620000 	   -0.3692750000
C   	    3.5916690000 	    0.0070800000 	    0.2594920000
C   	    2.9476720000 	   -1.3436690000 	   -0.0386540000
H   	   -0.7840480000 	   -2.2136650000 	   -0.0419860000
H   	   -3.0046510000 	   -1.8937860000 	    1.1100990000
H   	   -3.1420380000 	   -2.4497280000 	   -0.5600710000
H   	   -4.6640110000 	   -0.4976620000 	    0.1130720000
H   	   -3.7059350000 	   -0.2272700000 	   -1.3463070000
H   	   -2.9130110000 	    0.7384370000 	    1.4554440000
H   	   -3.5600500000 	    1.7655510000 	    0.1732180000
H   	   -1.6961120000 	    1.1465910000 	   -1.3096710000
H   	   -0.8186960000 	    2.2604710000 	    1.3862110000
H   	   -1.4419980000 	    3.1613880000 	    0.0027980000
H   	    1.0462170000 	    3.2763080000 	    0.0051120000
H   	    0.5119450000 	    2.3127450000 	   -1.3758610000
H   	    1.5131350000 	    1.3262440000 	    1.3177910000
H   	    3.2645960000 	    2.1014390000 	   -0.2029210000
H   	    2.7081270000 	    0.9853650000 	   -1.4574250000
H   	    3.6410250000 	    0.1693290000 	    1.3450350000
H   	    4.6257810000 	    0.0152830000 	   -0.1049030000
H   	    3.3430620000 	   -2.1416350000 	    0.5981830000
H   	    3.1780390000 	   -1.6419020000 	   -1.0713480000
