30
tauto -634.255616567
O   	    0.8082300000 	   -2.5269330000 	    0.0449780000
C   	    1.3179750000 	   -1.3836240000 	   -0.0211750000
C   	    0.5620320000 	   -0.1710280000 	   -0.1171460000
C   	   -0.8381810000 	   -0.2167090000 	   -0.0807240000
N   	   -1.4916660000 	   -1.4176380000 	    0.0122600000
C   	   -2.8383450000 	   -1.5558540000 	    0.0826180000
C   	   -3.6501930000 	   -0.4663980000 	    0.0634800000
C   	   -3.0333860000 	    0.8118970000 	   -0.0305050000
C   	   -1.6788880000 	    0.9565190000 	   -0.1117770000
C   	   -1.0104830000 	    2.3039070000 	   -0.2236130000
C   	    0.3834980000 	    2.2822460000 	    0.4015750000
C   	    1.2399910000 	    1.1883840000 	   -0.2387990000
C   	    2.6544140000 	    1.1620040000 	    0.3384040000
C   	    3.4573830000 	    0.0268530000 	   -0.2892010000
C   	    2.8366070000 	   -1.3203120000 	    0.0704310000
H   	   -0.8330620000 	   -2.2181360000 	    0.0398370000
H   	   -3.2006020000 	   -2.5759500000 	    0.1541860000
H   	   -4.7268280000 	   -0.5742080000 	    0.1213060000
H   	   -3.6585120000 	    1.7033230000 	   -0.0370790000
H   	   -1.6433390000 	    3.0689890000 	    0.2411200000
H   	   -0.9177830000 	    2.5743760000 	   -1.2852510000
H   	    0.3033700000 	    2.0955550000 	    1.4813300000
H   	    0.8659880000 	    3.2591370000 	    0.2736090000
H   	    1.3429030000 	    1.4489700000 	   -1.3073430000
H   	    2.6029010000 	    1.0217540000 	    1.4284910000
H   	    3.1417230000 	    2.1292200000 	    0.1596050000
H   	    4.5033040000 	    0.0564660000 	    0.0383350000
H   	    3.4661360000 	    0.1571570000 	   -1.3802310000
H   	    3.0824160000 	   -1.5798650000 	    1.1097350000
H   	    3.2326560000 	   -2.1351540000 	   -0.5446970000
