30
tauto -634.273378697
O   	    0.9651440000 	   -2.4744660000 	   -0.0548470000
C   	    1.4546570000 	   -1.3452080000 	   -0.0783000000
C   	    0.6528170000 	   -0.1087470000 	   -0.0437530000
C   	   -0.7721400000 	   -0.1665330000 	    0.0472210000
N   	   -1.4241550000 	   -1.3583220000 	    0.0758860000
C   	   -2.8588360000 	   -1.4903020000 	    0.2198740000
C   	   -3.5711590000 	   -0.3008990000 	   -0.4117320000
C   	   -3.0246130000 	    0.9895630000 	    0.1958220000
C   	   -1.5163520000 	    1.0435120000 	    0.0906810000
C   	   -0.8424800000 	    2.2448150000 	    0.0313080000
C   	    0.5509890000 	    2.3155680000 	   -0.0523630000
C   	    1.2974510000 	    1.1527220000 	   -0.0929310000
C   	    2.8027160000 	    1.2481920000 	   -0.2106570000
C   	    3.5036230000 	    0.0628290000 	    0.4410230000
C   	    2.9666380000 	   -1.2255610000 	   -0.1676560000
H   	   -0.8310630000 	   -2.1797730000 	    0.0625620000
H   	   -3.1412050000 	   -1.5651250000 	    1.2821310000
H   	   -3.1627630000 	   -2.4255340000 	   -0.2621570000
H   	   -4.6508780000 	   -0.3835470000 	   -0.2474550000
H   	   -3.3959540000 	   -0.3076930000 	   -1.4944390000
H   	   -3.3287770000 	    1.0433080000 	    1.2512230000
H   	   -3.4608940000 	    1.8656570000 	   -0.2979490000
H   	   -1.4221250000 	    3.1671320000 	    0.0570180000
H   	    1.0482740000 	    3.2816180000 	   -0.0866610000
H   	    3.1398190000 	    2.1947060000 	    0.2262900000
H   	    3.0765330000 	    1.2822500000 	   -1.2759140000
H   	    3.3150580000 	    0.0709340000 	    1.5223380000
H   	    4.5883490000 	    0.1301530000 	    0.3015570000
H   	    3.3869420000 	   -2.1237710000 	    0.2938670000
H   	    3.2267550000 	   -1.2660370000 	   -1.2360620000
