18
tauto -439.072610336
O   	    2.6184560000 	   -0.2680200000 	    0.6447680000
N   	    1.8125790000 	   -0.8309390000 	   -0.3839830000
C   	    0.4472820000 	   -0.5376720000 	   -0.1753270000
C   	   -0.5257860000 	   -1.4596580000 	   -0.1520200000
C   	   -1.9899210000 	   -1.1236700000 	   -0.0756400000
C   	   -2.2109430000 	    0.2559320000 	    0.5433860000
C   	   -1.3391120000 	    1.3022250000 	   -0.1475980000
C   	    0.1273580000 	    0.9229340000 	   -0.1654100000
O   	    1.0055590000 	    1.7641720000 	   -0.2291160000
H   	    2.7676450000 	    0.6273350000 	    0.3020730000
H   	    1.9849360000 	   -1.8290200000 	   -0.3147880000
H   	   -0.2536730000 	   -2.5140910000 	   -0.2126950000
H   	   -2.5087010000 	   -1.8914040000 	    0.5098860000
H   	   -2.4319110000 	   -1.1609710000 	   -1.0832580000
H   	   -1.9534170000 	    0.2139010000 	    1.6091820000
H   	   -3.2664960000 	    0.5412560000 	    0.4783290000
H   	   -1.4263620000 	    2.2924230000 	    0.3088960000
H   	   -1.6454540000 	    1.4073770000 	   -1.1993060000
