22
tauto -458.554004183
C   	   -3.6702450000 	   -0.3502650000 	    0.1474970000
N   	   -2.3227210000 	    0.1122030000 	   -0.0793550000
N   	   -1.3582420000 	   -0.7715250000 	   -0.0868920000
C   	   -0.0985780000 	   -0.4210740000 	   -0.1098520000
C   	    0.9027080000 	   -1.5553350000 	   -0.2142360000
C   	    2.2609070000 	   -1.2004680000 	    0.3893070000
C   	    2.7697910000 	    0.1075610000 	   -0.2132810000
C   	    1.8338160000 	    1.2608920000 	    0.1460070000
C   	    0.3505540000 	    0.9740820000 	   -0.0356290000
O   	   -0.4377110000 	    1.9237420000 	   -0.0456730000
H   	   -3.9572170000 	   -0.2839860000 	    1.2054130000
H   	   -3.7304000000 	   -1.3934250000 	   -0.1693280000
H   	   -4.3698840000 	    0.2476940000 	   -0.4443830000
H   	   -2.0683890000 	    1.0971740000 	   -0.0243660000
H   	    1.0537210000 	   -1.8137980000 	   -1.2731760000
H   	    0.4727580000 	   -2.4424600000 	    0.2621210000
H   	    2.9740240000 	   -2.0125620000 	    0.2071210000
H   	    2.1706670000 	   -1.0911160000 	    1.4793870000
H   	    2.8303470000 	    0.0003770000 	   -1.3051350000
H   	    3.7833550000 	    0.3346860000 	    0.1364520000
H   	    2.0604510000 	    2.1748010000 	   -0.4127370000
H   	    1.9552790000 	    1.5155730000 	    1.2088580000
