18
tauto -456.116068829
C   	   -3.5406230000 	   -0.3227490000 	    0.0002460000
N   	   -2.1524920000 	    0.0787100000 	   -0.0000410000
N   	   -1.2357670000 	   -0.8230910000 	   -0.0000370000
C   	    0.0442530000 	   -0.4494440000 	    0.0000020000
C   	    1.0122030000 	   -1.5122820000 	   -0.0002340000
C   	    2.3399330000 	   -1.2431570000 	   -0.0000370000
C   	    2.7811650000 	    0.1255710000 	    0.0002530000
C   	    1.9117460000 	    1.1677040000 	    0.0002020000
C   	    0.4764580000 	    0.9502560000 	   -0.0000830000
O   	   -0.3398640000 	    1.8984560000 	   -0.0003120000
H   	   -4.0482190000 	    0.0620550000 	   -0.8903680000
H   	   -4.0478960000 	    0.0621710000 	    0.8909790000
H   	   -3.5765740000 	   -1.4132940000 	    0.0002760000
H   	   -1.8409780000 	    1.0632240000 	   -0.0002050000
H   	    0.6281810000 	   -2.5292660000 	   -0.0004020000
H   	    3.0736470000 	   -2.0432140000 	   -0.0000520000
H   	    3.8510070000 	    0.3251930000 	    0.0004000000
H   	    2.2467370000 	    2.2007530000 	    0.0003260000
