28
tauto -633.038116758
O   	    1.0573450000 	   -2.4874200000 	   -0.0053450000
C   	    1.6168650000 	   -1.2337990000 	    0.0130030000
C   	    2.9839430000 	   -1.1058250000 	    0.0387290000
C   	    3.5839840000 	    0.1695640000 	    0.0458760000
C   	    2.8004190000 	    1.2866670000 	    0.0225890000
C   	    1.3819220000 	    1.1837960000 	   -0.0042220000
C   	    0.5941240000 	    2.3609560000 	   -0.0319840000
C   	   -0.7684340000 	    2.2656260000 	   -0.0547530000
C   	   -1.4335740000 	    1.0243410000 	   -0.0538530000
C   	   -2.9491640000 	    1.0028790000 	   -0.0747120000
C   	   -3.5096980000 	   -0.3287210000 	    0.4179650000
C   	   -2.7678950000 	   -1.4630910000 	   -0.2758190000
N   	   -1.3557510000 	   -1.3718960000 	    0.0242000000
C   	   -0.6975500000 	   -0.1585640000 	   -0.0242170000
C   	    0.7488100000 	   -0.0938270000 	   -0.0027140000
H   	    1.7687890000 	   -3.1399490000 	   -0.0004100000
H   	    3.6047570000 	   -2.0007360000 	    0.0512040000
H   	    4.6675680000 	    0.2505710000 	    0.0673720000
H   	    3.2451400000 	    2.2787280000 	    0.0241840000
H   	    1.0910180000 	    3.3275570000 	   -0.0303140000
H   	   -1.3744210000 	    3.1708280000 	   -0.0709330000
H   	   -3.3092300000 	    1.1907490000 	   -1.0966660000
H   	   -3.3333090000 	    1.8264420000 	    0.5398170000
H   	   -4.5844760000 	   -0.3971700000 	    0.2169650000
H   	   -3.3637720000 	   -0.4231150000 	    1.5005110000
H   	   -3.1264560000 	   -2.4365670000 	    0.0756610000
H   	   -2.9594960000 	   -1.4123610000 	   -1.3618640000
H   	   -0.7971270000 	   -2.1923570000 	   -0.1374980000
