18
tauto -439.084390824
O   	    2.6206910000 	   -0.1675450000 	   -0.4603360000
N   	    1.6483190000 	   -1.0755630000 	   -0.0998050000
C   	    0.5311510000 	   -0.5338450000 	    0.1970060000
C   	   -0.6167460000 	   -1.4400250000 	    0.5664160000
C   	   -1.8708890000 	   -1.0896010000 	   -0.2437140000
C   	   -2.2307480000 	    0.3883290000 	   -0.0791280000
C   	   -1.0768980000 	    1.3005340000 	   -0.5208210000
C   	    0.2310100000 	    0.9509290000 	    0.1668890000
O   	    0.9584470000 	    1.7775980000 	    0.6663760000
H   	    3.3700730000 	   -0.7380760000 	   -0.6741830000
H   	   -0.8376560000 	   -1.3153720000 	    1.6365210000
H   	   -0.3082800000 	   -2.4786070000 	    0.4142440000
H   	   -2.7065200000 	   -1.7218010000 	    0.0771010000
H   	   -1.6918990000 	   -1.3091500000 	   -1.3050760000
H   	   -2.4694620000 	    0.5892050000 	    0.9742660000
H   	   -3.1296670000 	    0.6314880000 	   -0.6564710000
H   	   -1.2859410000 	    2.3577240000 	   -0.3343020000
H   	   -0.9132630000 	    1.1751780000 	   -1.6016670000
