25
tauto -647.809044358
O   	    1.4740890000 	    1.9769270000 	    0.0001800000
C   	    2.1998240000 	    0.9619030000 	    0.0000000000
C   	    3.6503940000 	    1.0514110000 	   -0.0000610000
C   	    4.4222940000 	   -0.0628470000 	   -0.0000600000
C   	    3.8588710000 	   -1.3891250000 	    0.0000700000
C   	    2.5149820000 	   -1.5429480000 	    0.0001980000
C   	    1.6392460000 	   -0.3981590000 	    0.0001230000
N   	    0.3395020000 	   -0.6599180000 	    0.0001650000
N   	   -0.5032370000 	    0.3221690000 	    0.0000390000
C   	   -1.8917220000 	    0.0905570000 	   -0.0000300000
C   	   -2.4213420000 	   -1.1995660000 	   -0.0004260000
C   	   -3.8002830000 	   -1.3642680000 	   -0.0004950000
C   	   -4.6500350000 	   -0.2598750000 	   -0.0001890000
C   	   -4.1098230000 	    1.0226220000 	    0.0001990000
C   	   -2.7321620000 	    1.2033100000 	    0.0002860000
H   	    4.0748120000 	    2.0508860000 	   -0.0001210000
H   	    5.5055670000 	    0.0398650000 	   -0.0001310000
H   	    4.5200700000 	   -2.2501470000 	    0.0001190000
H   	    2.0443330000 	   -2.5224910000 	    0.0002760000
H   	   -0.1127040000 	    1.2768850000 	   -0.0000390000
H   	   -1.7490930000 	   -2.0508050000 	   -0.0006590000
H   	   -4.2157590000 	   -2.3686110000 	   -0.0008060000
H   	   -5.7274180000 	   -0.3995530000 	   -0.0002540000
H   	   -4.7629930000 	    1.8911050000 	    0.0004440000
H   	   -2.3048420000 	    2.2036150000 	    0.0006170000
