22
tauto -479.418679755
C   	    1.8421370000 	    1.8296080000 	   -0.0194830000
C   	    1.1639330000 	    0.4866790000 	   -0.0101280000
N   	    1.9549320000 	   -0.5763020000 	    0.0081850000
C   	    3.4011980000 	   -0.5560170000 	    0.0140600000
C   	   -0.2425090000 	    0.3103430000 	   -0.0059730000
C   	   -1.1399650000 	    1.4256590000 	    0.0085020000
C   	   -2.4921020000 	    1.2665770000 	    0.0136300000
C   	   -3.0394410000 	   -0.0508790000 	    0.0016300000
C   	   -2.2382470000 	   -1.1489920000 	   -0.0085730000
C   	   -0.7946230000 	   -1.0422210000 	   -0.0059270000
O   	   -0.0837780000 	   -2.0835620000 	   -0.0045110000
H   	    2.6349800000 	    1.8481640000 	   -0.7739090000
H   	    2.3110400000 	    2.0183690000 	    0.9535020000
H   	    1.1566510000 	    2.6465730000 	   -0.2320050000
H   	    1.4179490000 	   -1.4696250000 	    0.0119060000
H   	    3.7940570000 	    0.0445340000 	    0.8419930000
H   	    3.8082580000 	   -0.1626430000 	   -0.9254170000
H   	    3.7547520000 	   -1.5810330000 	    0.1366710000
H   	   -0.7404050000 	    2.4357260000 	    0.0256620000
H   	   -3.1508150000 	    2.1297130000 	    0.0271370000
H   	   -4.1209230000 	   -0.1744080000 	    0.0020130000
H   	   -2.6421370000 	   -2.1572990000 	   -0.0151910000
