26
tauto -631.806681456
O   	    0.9596680000 	   -2.4378100000 	   -0.6169060000
C   	    1.4861630000 	   -1.2800950000 	   -0.1389340000
C   	    2.7657390000 	   -1.1516460000 	    0.2425720000
C   	    3.3117990000 	    0.1851840000 	    0.6672120000
C   	    2.6550910000 	    1.2760170000 	   -0.1747100000
C   	    1.1495200000 	    1.1474120000 	   -0.1416090000
C   	    0.5680020000 	   -0.1101480000 	   -0.1017650000
C   	   -0.8608480000 	   -0.2192510000 	   -0.0053990000
N   	   -1.4352440000 	   -1.4447970000 	    0.1619480000
C   	   -2.7385470000 	   -1.5168510000 	    0.2476580000
C   	   -3.6111830000 	   -0.4032810000 	    0.1792640000
C   	   -3.0555250000 	    0.8358150000 	    0.0390910000
C   	   -1.6460250000 	    0.9644320000 	   -0.0463800000
C   	   -1.0166810000 	    2.2295820000 	   -0.1436200000
C   	    0.3460610000 	    2.3127800000 	   -0.1708800000
H   	    1.6633270000 	   -3.1006530000 	   -0.6107170000
H   	    3.4245620000 	   -2.0191670000 	    0.2301340000
H   	    4.3983300000 	    0.2124920000 	    0.5322450000
H   	    3.1214300000 	    0.3713200000 	    1.7355460000
H   	    2.9989220000 	    1.1777180000 	   -1.2151590000
H   	    2.9497890000 	    2.2737730000 	    0.1699670000
H   	   -3.1550060000 	   -2.5150670000 	    0.3869200000
H   	   -4.6852960000 	   -0.5457440000 	    0.2517920000
H   	   -3.6713620000 	    1.7324680000 	   -0.0003030000
H   	   -1.6324630000 	    3.1262160000 	   -0.1738070000
H   	    0.8357430000 	    3.2830030000 	   -0.2200060000
