32
tauto -710.44799399
O   	    1.4225670000 	   -2.1174630000 	   -0.0483930000
C   	    2.1544620000 	   -1.1066750000 	   -0.0223270000
C   	    3.6550820000 	   -1.3599740000 	    0.0244930000
C   	    4.4929540000 	   -0.1554070000 	    0.4382690000
C   	    4.0574560000 	    1.0622410000 	   -0.3682130000
C   	    2.6119870000 	    1.4357680000 	   -0.0375800000
C   	    1.6602360000 	    0.2479690000 	   -0.0471070000
C   	    0.2864130000 	    0.4821690000 	   -0.0279140000
N   	   -0.6093840000 	   -0.5489540000 	   -0.0513270000
C   	   -1.9769510000 	   -0.4153190000 	   -0.0232300000
C   	   -2.8043990000 	   -1.5507510000 	   -0.0501240000
C   	   -4.1752340000 	   -1.3941000000 	   -0.0214720000
C   	   -4.7546810000 	   -0.1160800000 	    0.0346270000
C   	   -3.9430980000 	    0.9995690000 	    0.0611700000
C   	   -2.5445800000 	    0.8690400000 	    0.0325170000
C   	   -1.6370820000 	    1.9876050000 	    0.0624050000
C   	   -0.2991330000 	    1.8103820000 	    0.0339570000
H   	    3.9464890000 	   -1.6884960000 	   -0.9832950000
H   	    3.8092710000 	   -2.2219480000 	    0.6816630000
H   	    5.5580980000 	   -0.3675840000 	    0.2891140000
H   	    4.3557960000 	    0.0479980000 	    1.5094660000
H   	    4.1459110000 	    0.8334420000 	   -1.4395290000
H   	    4.7098920000 	    1.9208760000 	   -0.1708760000
H   	    2.2801840000 	    2.1943720000 	   -0.7586390000
H   	    2.6003460000 	    1.9279910000 	    0.9481440000
H   	   -0.1548860000 	   -1.4738140000 	   -0.0783230000
H   	   -2.3536550000 	   -2.5390180000 	   -0.0935990000
H   	   -4.8129980000 	   -2.2739610000 	   -0.0421120000
H   	   -5.8352070000 	   -0.0089110000 	    0.0574310000
H   	   -4.3759690000 	    1.9968960000 	    0.1058400000
H   	   -2.0544950000 	    2.9912090000 	    0.1146840000
H   	    0.3657810000 	    2.6647040000 	    0.0696260000
