23
tauto -608.757290443
O   	   -0.8645110000 	    2.2103100000 	   -0.1414600000
C   	   -1.2827990000 	    0.9447630000 	   -0.0414160000
O   	   -2.6342180000 	    0.9201380000 	    0.0278010000
C   	   -3.2351670000 	   -0.3184600000 	    0.4177340000
C   	   -2.6146960000 	   -1.4619550000 	   -0.3577420000
C   	   -1.1245650000 	   -1.5319030000 	   -0.0380350000
C   	   -0.4903620000 	   -0.1546990000 	   -0.0298070000
C   	    0.9744650000 	   -0.0960040000 	   -0.0090220000
N   	    1.5974540000 	   -1.2902750000 	    0.0345610000
C   	    2.9260050000 	   -1.2776420000 	    0.0624240000
C   	    3.6692770000 	   -0.1060060000 	    0.0495540000
C   	    2.9291960000 	    1.0695450000 	    0.0072610000
N   	    1.6024880000 	    1.0923700000 	   -0.0219230000
H   	   -1.6548540000 	    2.7644430000 	   -0.0540660000
H   	   -4.3012940000 	   -0.1912540000 	    0.2175640000
H   	   -3.0871850000 	   -0.4514250000 	    1.4978230000
H   	   -2.7718400000 	   -1.2820720000 	   -1.4281810000
H   	   -3.1178940000 	   -2.4010460000 	   -0.1028440000
H   	   -0.6075550000 	   -2.1584040000 	   -0.7709340000
H   	   -0.9677540000 	   -2.0262260000 	    0.9303310000
H   	    3.4136600000 	   -2.2519820000 	    0.0977330000
H   	    4.7537280000 	   -0.1074940000 	    0.0722580000
H   	    3.4231170000 	    2.0413770000 	   -0.0045830000
