26
tauto -539.826289855
O   	    1.1894840000 	    2.0455330000 	    0.8258020000
C   	    1.2221480000 	    1.1173750000 	    0.0537820000
C   	    2.5203330000 	    0.4863650000 	   -0.4185180000
C   	    2.6069780000 	   -0.9463320000 	    0.1385500000
C   	    1.3536080000 	   -1.7636930000 	   -0.1878700000
C   	    0.0695950000 	   -1.0582810000 	    0.2618670000
C   	   -1.1890000000 	   -1.8798130000 	   -0.0114060000
C   	   -2.4358480000 	   -1.1470810000 	    0.4810730000
C   	   -2.5974310000 	    0.1992590000 	   -0.2270110000
C   	   -0.0131740000 	    0.3410590000 	   -0.4046320000
C   	   -1.3472090000 	    1.0672910000 	   -0.2298810000
O   	   -1.4230850000 	    2.2736000000 	   -0.2223300000
H   	    3.3555520000 	    1.1015810000 	   -0.0738560000
H   	    2.5347900000 	    0.4566260000 	   -1.5166100000
H   	    2.7285570000 	   -0.8909610000 	    1.2284430000
H   	    3.5004490000 	   -1.4446440000 	   -0.2536970000
H   	    1.4177400000 	   -2.7493230000 	    0.2898100000
H   	    1.2973390000 	   -1.9420530000 	   -1.2724460000
H   	    0.1316260000 	   -0.8982230000 	    1.3507230000
H   	   -1.1000530000 	   -2.8561890000 	    0.4810150000
H   	   -1.2722970000 	   -2.0753260000 	   -1.0915340000
H   	   -2.3552000000 	   -0.9874300000 	    1.5647190000
H   	   -3.3317780000 	   -1.7569700000 	    0.3201270000
H   	   -3.4134740000 	    0.7980460000 	    0.1875290000
H   	   -2.8411110000 	    0.0204300000 	   -1.2857660000
H   	    0.0766670000 	    0.1744730000 	   -1.4919690000
