24
tauto -663.871136691
O   	    0.9501710000 	   -2.4791310000 	   -0.0000300000
C   	    1.4167310000 	   -1.3321280000 	   -0.0000250000
N   	    2.7824410000 	   -1.1637800000 	   -0.0000870000
C   	    3.3956490000 	    0.0972190000 	    0.0000550000
C   	    2.6573800000 	    1.2063420000 	    0.0000810000
N   	    1.2634960000 	    1.1542270000 	   -0.0000550000
C   	    0.6057300000 	   -0.1286120000 	    0.0000080000
C   	   -0.7758780000 	   -0.1804160000 	    0.0000300000
N   	   -1.4526680000 	   -1.3724150000 	    0.0000790000
C   	   -2.8293500000 	   -1.4689640000 	    0.0000260000
C   	   -3.5967750000 	   -0.3628450000 	   -0.0000070000
C   	   -2.9467120000 	    0.9226850000 	   -0.0000130000
C   	   -1.5895780000 	    1.0234780000 	    0.0000020000
C   	   -0.8442820000 	    2.2784140000 	   -0.0000220000
C   	    0.5016290000 	    2.2889670000 	   -0.0000450000
H   	    3.3246770000 	   -2.0129350000 	   -0.0001320000
H   	    4.4770870000 	    0.1166640000 	    0.0001800000
H   	    3.0968920000 	    2.1961500000 	    0.0002100000
H   	   -0.8555250000 	   -2.1986250000 	    0.0000250000
H   	   -3.2182230000 	   -2.4808890000 	    0.0000270000
H   	   -4.6777590000 	   -0.4423420000 	   -0.0000440000
H   	   -3.5471200000 	    1.8290750000 	   -0.0000410000
H   	   -1.3872270000 	    3.2172890000 	   -0.0000240000
H   	    1.0656890000 	    3.2175870000 	   -0.0000580000
