24
tauto -517.761066291
C   	   -3.6680790000 	    0.2152520000 	    0.0370730000
N   	   -2.2484680000 	    0.4820560000 	   -0.0147190000
C   	   -1.3684120000 	   -0.5509930000 	    0.0157110000
C   	    0.1048590000 	   -0.2588390000 	   -0.0097560000
C   	    0.9619370000 	   -1.5076200000 	    0.0211240000
C   	    2.4163110000 	   -1.2503460000 	   -0.3624940000
C   	    2.9576390000 	   -0.0343450000 	    0.3828530000
C   	    2.1575000000 	    1.2072680000 	   -0.0049920000
C   	    0.6712530000 	    0.9575740000 	   -0.0329020000
O   	   -0.0853390000 	    2.1020610000 	   -0.1160570000
O   	   -1.7612240000 	   -1.7134260000 	    0.0702440000
H   	   -4.2080790000 	    1.1582200000 	   -0.0771020000
H   	   -3.9524980000 	   -0.2487030000 	    0.9882550000
H   	   -3.9619060000 	   -0.4683380000 	   -0.7655170000
H   	   -1.9041110000 	    1.4276120000 	   -0.0444940000
H   	    0.5078180000 	   -2.2475640000 	   -0.6442560000
H   	    0.9094600000 	   -1.9531510000 	    1.0241410000
H   	    2.4894110000 	   -1.0726070000 	   -1.4445280000
H   	    3.0224650000 	   -2.1366690000 	   -0.1438180000
H   	    4.0200340000 	    0.1283330000 	    0.1701200000
H   	    2.8662300000 	   -0.2016490000 	    1.4639070000
H   	    2.4688440000 	    1.5678820000 	   -0.9969000000
H   	    2.3624780000 	    2.0251310000 	    0.7022920000
H   	    0.4935810000 	    2.8703190000 	   -0.0422750000
