22
tauto -479.405686165
C   	    1.8570960000 	    1.1794490000 	    0.8709030000
C   	    1.2991480000 	    0.0062470000 	    0.0842030000
C   	   -0.1841860000 	   -0.1698740000 	    0.0246820000
C   	   -0.7180070000 	   -1.4543530000 	    0.1794480000
C   	   -2.0867900000 	   -1.6739210000 	    0.1950690000
C   	   -2.9546660000 	   -0.5931970000 	    0.0416810000
C   	   -2.4515070000 	    0.6848460000 	   -0.1473540000
C   	   -1.0735180000 	    0.8964960000 	   -0.1681930000
O   	   -0.6658910000 	    2.1839100000 	   -0.3909600000
N   	    2.0218460000 	   -0.8879070000 	   -0.4664840000
C   	    3.4639420000 	   -0.7787150000 	   -0.3487100000
H   	    1.0743990000 	    1.7699800000 	    1.3503920000
H   	    2.4628070000 	    1.8406180000 	    0.2357590000
H   	    2.5299930000 	    0.8072180000 	    1.6522120000
H   	   -0.0186000000 	   -2.2768800000 	    0.2988470000
H   	   -2.4773910000 	   -2.6784050000 	    0.3309320000
H   	   -4.0304850000 	   -0.7488940000 	    0.0566220000
H   	   -3.1049860000 	    1.5385730000 	   -0.3006530000
H   	    0.2577340000 	    2.1867980000 	   -0.6686400000
H   	    3.9327890000 	   -1.5654130000 	   -0.9449670000
H   	    3.7938590000 	   -0.9020120000 	    0.6929830000
H   	    3.8450170000 	    0.1906230000 	   -0.7007930000
