23
tauto -666.735555355
O   	   -0.6217770000 	    2.2436590000 	   -0.0277640000
C   	   -1.0106000000 	    0.9570520000 	   -0.0781330000
O   	   -2.3797480000 	    0.9077780000 	   -0.1937060000
C   	   -3.0889390000 	   -0.2572760000 	    0.0368360000
C   	   -2.2613170000 	   -1.4109990000 	    0.5312510000
C   	   -0.8930490000 	   -1.4663480000 	   -0.1417560000
O   	   -4.2704760000 	   -0.2368630000 	   -0.1436770000
C   	   -0.2114330000 	   -0.1194920000 	   -0.0620570000
C   	    1.2669040000 	   -0.0769680000 	   -0.0214040000
N   	    1.8623950000 	   -1.2694810000 	   -0.1831230000
C   	    3.1925970000 	   -1.3289170000 	   -0.1676230000
C   	    4.0147440000 	   -0.2246480000 	    0.0111100000
C   	    3.4007450000 	    1.0108880000 	    0.1860660000
C   	    2.0169470000 	    1.0946860000 	    0.1707590000
H   	   -1.4184790000 	    2.7904040000 	   -0.0949270000
H   	   -2.8464720000 	   -2.3207280000 	    0.3825570000
H   	   -2.1333010000 	   -1.2678320000 	    1.6129320000
H   	   -0.9923050000 	   -1.7891210000 	   -1.1869800000
H   	   -0.2657610000 	   -2.2144620000 	    0.3456830000
H   	    3.6227210000 	   -2.3203360000 	   -0.3056850000
H   	    5.0951340000 	   -0.3324550000 	    0.0157570000
H   	    3.9953190000 	    1.9088310000 	    0.3360760000
H   	    1.5227770000 	    2.0476080000 	    0.3073270000
