19
tauto -602.51789585
O   	    1.9833340000 	   -2.2146300000 	    0.0000920000
C   	    1.8074040000 	   -0.8824720000 	    0.0000320000
N   	    2.8565960000 	   -0.0194240000 	    0.0000790000
C   	    2.3305620000 	    1.1875090000 	   -0.0000740000
C   	    0.6098860000 	   -0.2074650000 	   -0.0000660000
N   	    0.9768440000 	    1.1444730000 	   -0.0001040000
C   	    0.0358760000 	    2.1757270000 	   -0.0000260000
C   	   -1.2676800000 	    1.8759830000 	    0.0000740000
N   	   -1.6766540000 	    0.5449600000 	    0.0001320000
C   	   -0.7947790000 	   -0.5211260000 	   -0.0000270000
N   	   -1.4172480000 	   -1.6724930000 	   -0.0002200000
C   	   -2.7551500000 	   -1.3506460000 	   -0.0000040000
C   	   -2.9478220000 	   -0.0004910000 	    0.0000540000
H   	    2.9401770000 	   -2.3602450000 	    0.0002130000
H   	    2.8802120000 	    2.1197400000 	   -0.0001280000
H   	    0.4165370000 	    3.1888580000 	   -0.0001040000
H   	   -2.0443890000 	    2.6298630000 	    0.0001310000
H   	   -3.5121960000 	   -2.1238040000 	   -0.0000200000
H   	   -3.8335590000 	    0.6178880000 	    0.0001860000
