24
tauto -534.77317465
O   	   -1.5841830000 	    2.0487120000 	    0.0359600000
C   	   -1.8557270000 	    0.8473680000 	    0.0164080000
C   	   -3.2491900000 	    0.2213970000 	    0.0382500000
C   	   -2.9027990000 	   -1.2449740000 	   -0.0033300000
N   	   -1.6481710000 	   -1.5047380000 	   -0.0406240000
C   	   -0.9478950000 	   -0.2750790000 	   -0.0296890000
C   	    0.4253720000 	   -0.1786240000 	   -0.0587550000
N   	    1.0074030000 	    1.0346910000 	   -0.0749880000
C   	    2.4257770000 	    1.2983830000 	    0.1118610000
C   	    3.2740090000 	    0.0954600000 	   -0.2796930000
C   	    2.7131280000 	   -1.1661970000 	    0.3722460000
C   	    1.2904680000 	   -1.4118420000 	   -0.1269960000
H   	   -3.8436610000 	    0.5504320000 	   -0.8222180000
H   	   -3.7984690000 	    0.5097850000 	    0.9422460000
H   	   -3.6392210000 	   -2.0462770000 	    0.0007960000
H   	    0.3513650000 	    1.8135660000 	   -0.0142480000
H   	    2.6181870000 	    1.5549980000 	    1.1647080000
H   	    2.6915960000 	    2.1744580000 	   -0.4893220000
H   	    4.3111270000 	    0.2751290000 	    0.0232770000
H   	    3.2672070000 	   -0.0213220000 	   -1.3713400000
H   	    2.7133520000 	   -1.0457070000 	    1.4640840000
H   	    3.3402490000 	   -2.0351300000 	    0.1466320000
H   	    0.7876080000 	   -2.2169320000 	    0.4141470000
H   	    1.3206440000 	   -1.7277220000 	   -1.1789700000
