25
tauto -681.097445368
O   	    1.2240300000 	   -2.5382660000 	    0.3429660000
C   	    1.5245450000 	   -1.3778750000 	    0.1406110000
N   	    2.8426580000 	   -1.0337290000 	   -0.1147540000
C   	    3.2856650000 	    0.2580140000 	   -0.4212520000
C   	    2.4693310000 	    1.2896920000 	   -0.2001390000
N   	    1.1973080000 	    1.0604340000 	    0.3239250000
C   	    0.5957800000 	   -0.2135230000 	    0.1227810000
C   	   -0.7530240000 	   -0.3314550000 	   -0.0393830000
N   	   -1.3878830000 	   -1.5616590000 	   -0.1295690000
C   	   -2.6752370000 	   -1.6065930000 	   -0.1117290000
C   	   -3.5338380000 	   -0.4531750000 	   -0.0156850000
C   	   -2.9139010000 	    0.7452900000 	   -0.0662200000
N   	   -1.5564200000 	    0.8380490000 	   -0.1390130000
C   	   -0.8924940000 	    2.1143760000 	   -0.3014200000
C   	    0.3174610000 	    2.1498010000 	    0.6391360000
H   	    3.4760240000 	   -1.8178980000 	   -0.1468460000
H   	    4.2768590000 	    0.3590650000 	   -0.8430890000
H   	    2.7492000000 	    2.3190630000 	   -0.3961910000
H   	   -3.1235730000 	   -2.5978890000 	   -0.1929240000
H   	   -4.6113260000 	   -0.5382680000 	    0.0427590000
H   	   -3.4439490000 	    1.6945460000 	   -0.0709900000
H   	   -1.6049200000 	    2.9139430000 	   -0.0738350000
H   	   -0.5464440000 	    2.2355410000 	   -1.3362350000
H   	   -0.0367800000 	    2.0738970000 	    1.6763880000
H   	    0.8573000000 	    3.0951460000 	    0.5329140000
