28
tauto -650.019472255
C   	   -0.1130300000 	    1.8740250000 	   -1.2207800000
C   	    0.1267490000 	    0.3818070000 	   -1.1647050000
C   	    1.4198380000 	    0.0564540000 	   -0.4245450000
C   	    1.6715820000 	    0.5996480000 	    0.8381650000
C   	    2.8410280000 	    0.2843620000 	    1.5195870000
C   	    3.7756760000 	   -0.5774640000 	    0.9494440000
C   	    3.5330140000 	   -1.1211610000 	   -0.3068670000
C   	    2.3607750000 	   -0.8032080000 	   -0.9887240000
N   	   -0.8852800000 	    2.5365230000 	   -0.4502660000
N   	   -1.5833640000 	    1.8369660000 	    0.5027360000
C   	   -1.8909540000 	    0.4836120000 	    0.3137690000
C   	   -1.0815570000 	   -0.2784330000 	   -0.5302650000
C   	   -1.3954940000 	   -1.6196280000 	   -0.7371770000
C   	   -2.4813690000 	   -2.2073990000 	   -0.1011680000
C   	   -3.2725610000 	   -1.4398120000 	    0.7534120000
C   	   -2.9865060000 	   -0.0983230000 	    0.9576320000
H   	    0.4361440000 	    2.4638070000 	   -1.9519770000
H   	    0.2365210000 	    0.0123170000 	   -2.1930130000
H   	    0.9445720000 	    1.2739190000 	    1.2872610000
H   	    3.0252730000 	    0.7149480000 	    2.5006860000
H   	    4.6909110000 	   -0.8215360000 	    1.4827690000
H   	    4.2574320000 	   -1.7927090000 	   -0.7611450000
H   	    2.1768020000 	   -1.2286190000 	   -1.9741580000
H   	   -2.3225670000 	    2.4071100000 	    0.8872260000
H   	   -0.7639970000 	   -2.2116510000 	   -1.3975790000
H   	   -2.7084510000 	   -3.2569870000 	   -0.2646910000
H   	   -4.1248950000 	   -1.8881420000 	    1.2573830000
H   	   -3.6103730000 	    0.5062460000 	    1.6132800000
