28
tauto -650.000047893
C   	    4.2158550000 	   -0.5971430000 	   -0.0892980000
C   	    3.3529210000 	   -1.1655970000 	    0.8447820000
C   	    2.0237260000 	   -0.7634130000 	    0.9048000000
C   	    3.7392670000 	    0.3768990000 	   -0.9597720000
C   	    2.4059470000 	    0.7742840000 	   -0.9023920000
C   	    1.5289990000 	    0.2104070000 	    0.0280420000
C   	    0.1212620000 	    0.6823750000 	    0.1168450000
C   	   -0.1302840000 	    1.9661370000 	    0.4253560000
N   	   -1.4133370000 	    2.5220100000 	    0.4600590000
N   	   -2.4683300000 	    1.7753000000 	   -0.1017520000
C   	   -2.3159720000 	    0.3522130000 	   -0.0611630000
C   	   -1.0354080000 	   -0.2267980000 	   -0.0262350000
C   	   -0.9377800000 	   -1.6176220000 	   -0.1087770000
C   	   -2.0775820000 	   -2.4101570000 	   -0.2108830000
C   	   -3.3383170000 	   -1.8238160000 	   -0.2238040000
C   	   -3.4547160000 	   -0.4390060000 	   -0.1402410000
H   	    5.2555190000 	   -0.9111590000 	   -0.1356960000
H   	    3.7197140000 	   -1.9186700000 	    1.5379520000
H   	    1.3610640000 	   -1.1928620000 	    1.6529480000
H   	    4.4053110000 	    0.8276010000 	   -1.6914920000
H   	    2.0301720000 	    1.5266860000 	   -1.5918440000
H   	    0.6683390000 	    2.6600900000 	    0.6817990000
H   	   -1.6786100000 	    2.8966990000 	    1.3644060000
H   	   -2.5865700000 	    2.0865830000 	   -1.0614510000
H   	    0.0422720000 	   -2.0859740000 	   -0.1140040000
H   	   -1.9755080000 	   -3.4898290000 	   -0.2833140000
H   	   -4.2305190000 	   -2.4397320000 	   -0.3009840000
H   	   -4.4270250000 	    0.0468180000 	   -0.1500370000
