12
tauto -265.40860629
C   	    1.4282110000 	    0.1126320000 	    0.1915070000
C   	    0.6707070000 	   -1.1532700000 	   -0.1349150000
N   	   -0.5990010000 	   -1.2820900000 	   -0.0984480000
N   	   -1.3252890000 	   -0.1581110000 	    0.2295960000
C   	   -0.7893620000 	    1.0996730000 	   -0.0578830000
C   	    0.5298500000 	    1.2806560000 	   -0.1239620000
H   	    2.3621790000 	    0.1476720000 	   -0.3816630000
H   	    1.7197820000 	    0.1055410000 	    1.2542380000
H   	    1.2188060000 	   -2.0496600000 	   -0.4191820000
H   	   -2.2963010000 	   -0.2934940000 	   -0.0070580000
H   	   -1.5183820000 	    1.8866390000 	   -0.2266480000
H   	    0.9475120000 	    2.2465660000 	   -0.3862010000
