18
tauto -514.103289628
O   	    1.9859800000 	    1.7001560000 	    0.0000960000
C   	    1.4398380000 	    0.4948570000 	   -0.0000150000
C   	    2.2737240000 	   -0.7621570000 	   -0.0000440000
C   	    1.2351450000 	   -1.9010850000 	    0.0000510000
C   	   -0.1012180000 	   -1.1880350000 	   -0.0000670000
N   	   -1.2427240000 	   -1.7850180000 	    0.0000520000
C   	   -2.3450490000 	   -0.9272210000 	    0.0000260000
C   	   -2.3142350000 	    0.4256260000 	    0.0000450000
C   	    0.1035230000 	    0.2431660000 	   -0.0002140000
C   	   -1.0453740000 	    1.1634380000 	   -0.0000570000
O   	   -0.9473470000 	    2.3833330000 	   -0.0000040000
H   	    2.9510370000 	    1.6275870000 	    0.0002900000
H   	    2.9255300000 	   -0.7820660000 	    0.8826630000
H   	    2.9253110000 	   -0.7820770000 	   -0.8829200000
H   	    1.3219680000 	   -2.5439680000 	    0.8805770000
H   	    1.3220940000 	   -2.5442620000 	   -0.8802460000
H   	   -3.3022090000 	   -1.4452470000 	    0.0000740000
H   	   -3.2318520000 	    1.0057050000 	    0.0001230000
