16
tauto -512.856692587
O   	   -2.1960110000 	    1.5034370000 	   -0.0000340000
C   	   -1.5247340000 	    0.3638840000 	   -0.0000220000
C   	   -2.1707120000 	   -0.9812920000 	   -0.0000420000
C   	   -1.2052330000 	   -1.9085540000 	   -0.0000100000
C   	    0.1048710000 	   -1.1931360000 	    0.0000020000
N   	    1.2612520000 	   -1.7514640000 	    0.0000170000
C   	    2.3446040000 	   -0.8519550000 	    0.0000350000
C   	    2.2483280000 	    0.4926800000 	    0.0000350000
C   	   -0.1656080000 	    0.2314040000 	    0.0000000000
C   	    0.9366760000 	    1.1850960000 	    0.0000160000
O   	    0.8221440000 	    2.4025280000 	    0.0000130000
H   	   -3.1478110000 	    1.3301300000 	   -0.0000540000
H   	   -3.2446760000 	   -1.1390390000 	   -0.0000660000
H   	   -1.3074990000 	   -2.9865920000 	   -0.0000080000
H   	    3.3167490000 	   -1.3383580000 	    0.0000500000
H   	    3.1362550000 	    1.1176260000 	    0.0000490000
