12
tauto -360.492179501
C   	    2.4748940000 	   -0.3954180000 	    0.0151210000
C   	    1.0013110000 	   -0.1637710000 	   -0.0066260000
N   	    0.5322490000 	    1.1397760000 	   -0.1179330000
O   	   -0.8596840000 	    1.1004400000 	    0.0013320000
C   	   -0.0325760000 	   -1.0229700000 	   -0.0054810000
C   	   -1.2589560000 	   -0.2373830000 	    0.0072520000
O   	   -2.4243580000 	   -0.5266330000 	    0.0175320000
H   	    2.9420670000 	    0.1182510000 	    0.8631340000
H   	    2.9345770000 	   -0.0157230000 	   -0.9025520000
H   	    2.6878360000 	   -1.4624940000 	    0.1015610000
H   	    0.8783740000 	    1.8106740000 	    0.5621010000
H   	   -0.0043000000 	   -2.1023460000 	   -0.0112250000
