37
tauto -975.158781796
C   	    1.1738680000 	    4.6190470000 	    0.1959270000
C   	    1.8910860000 	    3.4824610000 	    0.8995410000
O   	    1.0694660000 	    2.3019630000 	    0.9082990000
C   	    1.0483750000 	    1.5883600000 	   -0.2209580000
C   	   -0.0370930000 	    0.5594550000 	   -0.1681910000
C   	    0.1994140000 	   -0.7808960000 	   -0.0986540000
C   	    1.5395310000 	   -1.4280880000 	   -0.0532580000
C   	    2.5171690000 	   -1.1475540000 	   -1.0111700000
C   	    3.7431670000 	   -1.8030840000 	   -0.9611340000
C   	    4.0048080000 	   -2.7360300000 	    0.0376650000
C   	    3.0352240000 	   -3.0157510000 	    0.9964330000
C   	    1.8065870000 	   -2.3680930000 	    0.9488740000
N   	   -0.8465370000 	   -1.6615190000 	   -0.0103180000
C   	   -2.1734430000 	   -1.2699490000 	   -0.0103480000
C   	   -3.2001140000 	   -2.2235820000 	    0.0710860000
C   	   -4.5156600000 	   -1.8042270000 	    0.0718540000
C   	   -4.8353370000 	   -0.4402350000 	   -0.0077310000
C   	   -3.8220670000 	    0.4933780000 	   -0.0907470000
C   	   -2.4793920000 	    0.0921290000 	   -0.0943490000
C   	   -1.4004760000 	    1.0995300000 	   -0.1928300000
O   	   -1.6343230000 	    2.2988590000 	   -0.2953130000
O   	    1.7879260000 	    1.7805190000 	   -1.1609670000
H   	    1.7562550000 	    5.5426390000 	    0.2828620000
H   	    0.1870400000 	    4.7762660000 	    0.6400110000
H   	    1.0406670000 	    4.3881800000 	   -0.8641800000
H   	    2.0586130000 	    3.7022430000 	    1.9565260000
H   	    2.8463460000 	    3.2497570000 	    0.4216120000
H   	    2.3155520000 	   -0.4093060000 	   -1.7800520000
H   	    4.4976260000 	   -1.5817010000 	   -1.7111240000
H   	    4.9658020000 	   -3.2426510000 	    0.0718470000
H   	    3.2370340000 	   -3.7350520000 	    1.7856690000
H   	    1.0575730000 	   -2.5718780000 	    1.7115600000
H   	   -0.6330380000 	   -2.6477410000 	   -0.0354480000
H   	   -2.9541550000 	   -3.2815660000 	    0.1348060000
H   	   -5.3098350000 	   -2.5436430000 	    0.1351260000
H   	   -5.8748940000 	   -0.1255580000 	   -0.0060250000
H   	   -4.0232790000 	    1.5586930000 	   -0.1591800000
