21
tauto -516.332191202
C   	    0.7807640000 	    2.7293760000 	    0.0000050000
C   	    0.7068830000 	    1.2279110000 	   -0.0000230000
N   	    1.8737680000 	    0.5556850000 	   -0.0000450000
C   	   -0.4781330000 	    0.5089300000 	   -0.0000080000
C   	   -1.7672850000 	    1.1459080000 	    0.0000240000
C   	   -2.9052240000 	    0.4092210000 	    0.0000150000
C   	   -2.8297810000 	   -1.0257610000 	   -0.0000070000
C   	   -1.6359370000 	   -1.6670270000 	   -0.0000130000
C   	   -0.3928670000 	   -0.9317240000 	   -0.0000010000
C   	    0.8284630000 	   -1.5724270000 	   -0.0000030000
C   	    2.0625960000 	   -0.8520240000 	    0.0000040000
O   	    3.2086310000 	   -1.2837160000 	    0.0000350000
H   	    1.8182690000 	    3.0749360000 	   -0.0001570000
H   	    0.2870940000 	    3.1437340000 	    0.8845570000
H   	    0.2868290000 	    3.1437900000 	   -0.8843690000
H   	    2.7489190000 	    1.0669070000 	    0.0000060000
H   	   -1.8211110000 	    2.2318510000 	    0.0000450000
H   	   -3.8770840000 	    0.8939980000 	    0.0000250000
H   	   -3.7526020000 	   -1.6007880000 	   -0.0000240000
H   	   -1.5859530000 	   -2.7531370000 	   -0.0000290000
H   	    0.8933460000 	   -2.6556600000 	    0.0000220000
