12
tauto -265.382849293
C   	   -0.7246300000 	    1.2161870000 	   -0.1103230000
C   	   -1.3766940000 	    0.0486470000 	   -0.0499260000
N   	   -0.6851510000 	   -1.1719100000 	    0.1634240000
N   	    0.6900210000 	   -1.1680110000 	   -0.1616810000
C   	    1.3761450000 	    0.0548900000 	    0.0467320000
C   	    0.7190780000 	    1.2195610000 	    0.1123690000
H   	   -1.2525570000 	    2.1395060000 	   -0.3268250000
H   	   -2.4547540000 	   -0.0441870000 	   -0.1629050000
H   	   -0.8032540000 	   -1.5292330000 	    1.1073190000
H   	    0.8137280000 	   -1.5345620000 	   -1.1011470000
H   	    2.4555290000 	   -0.0328360000 	    0.1513320000
H   	    1.2438190000 	    2.1450510000 	    0.3269270000
