7
tauto -258.195180481
C   	    1.0571060000 	   -0.3050750000 	   -0.0000200000
N   	    0.0497250000 	   -1.1621170000 	   -0.0000900000
N   	   -0.9732800000 	   -0.3289860000 	   -0.0000410000
H   	   -1.9339300000 	   -0.6412250000 	    0.0001610000
N   	   -0.6533500000 	    0.9474200000 	    0.0001990000
N   	    0.6479540000 	    0.9833730000 	   -0.0002150000
H   	    2.0939510000 	   -0.6061530000 	    0.0009920000
