12
tauto -501.983507762
N   	    2.9503310000 	   -0.6563810000 	   -0.0716990000
C   	    1.6906590000 	   -0.1169200000 	   -0.0103630000
N   	    1.4675250000 	    1.1945990000 	    0.0032360000
N   	    0.1204720000 	    1.2495100000 	    0.0034660000
H   	   -0.3859270000 	    2.1227180000 	    0.0086500000
C   	   -0.3677260000 	    0.0100300000 	   -0.0027430000
N   	   -1.7992730000 	   -0.2187400000 	    0.0015680000
O   	   -2.4867480000 	    0.7937410000 	    0.0035860000
O   	   -2.1928250000 	   -1.3614830000 	    0.0042790000
N   	    0.5732250000 	   -0.8964030000 	   -0.0108560000
H   	    3.6867560000 	   -0.0459570000 	    0.2506800000
H   	    3.0121880000 	   -1.6015780000 	    0.2763740000
