21
tauto -627.630191686
C   	   -3.6679790000 	    0.0348830000 	    0.8376940000
C   	   -3.0146340000 	   -0.2516190000 	   -0.5007700000
O   	   -1.6260260000 	   -0.5892820000 	   -0.3401860000
C   	   -0.7809330000 	    0.4353280000 	   -0.2100560000
C   	    0.6098440000 	   -0.0031740000 	   -0.0535000000
C   	    1.6706540000 	    0.8467080000 	    0.0480990000
C   	    1.7386830000 	    2.3340770000 	    0.0069990000
N   	    2.8019310000 	    0.1237630000 	    0.2787350000
O   	    2.5238610000 	   -1.2278160000 	    0.1488800000
C   	    1.1300500000 	   -1.3650270000 	   -0.0067700000
O   	    0.6432450000 	   -2.4570830000 	   -0.0635550000
O   	   -1.1109270000 	    1.6067880000 	   -0.2277850000
H   	   -4.7407740000 	    0.2058460000 	    0.6990880000
H   	   -3.2322440000 	    0.9286570000 	    1.2922640000
H   	   -3.5375070000 	   -0.8120430000 	    1.5180190000
H   	   -3.0947790000 	    0.6062920000 	   -1.1736700000
H   	   -3.4494280000 	   -1.1317600000 	   -0.9791580000
H   	    1.1713040000 	    2.7088000000 	   -0.8466040000
H   	    2.7746470000 	    2.6823310000 	   -0.0432930000
H   	    1.2687210000 	    2.7478240000 	    0.9034370000
H   	    3.6712170000 	    0.3498130000 	   -0.1902270000
