30
tauto -817.470901617
O   	   -4.0726600000 	   -1.9267580000 	    0.2112540000
C   	   -2.9132720000 	   -1.6161150000 	    0.0528030000
N   	   -2.4321480000 	   -0.3111640000 	    0.0475390000
C   	   -1.1542330000 	   -0.0941220000 	   -0.0166140000
C   	   -0.7374240000 	    1.3335060000 	   -0.1050860000
C   	   -1.4639830000 	    2.2873150000 	    0.6124290000
C   	   -1.1376770000 	    3.6342960000 	    0.5160420000
C   	   -0.0994890000 	    4.0418050000 	   -0.3173610000
C   	    0.6125880000 	    3.0982750000 	   -1.0526320000
C   	    0.3022710000 	    1.7479240000 	   -0.9423710000
C   	   -0.1897950000 	   -1.1967440000 	   -0.0438960000
C   	    1.2849840000 	   -1.0459400000 	    0.0849730000
C   	    2.1311140000 	   -1.8016690000 	   -0.7294420000
C   	    3.5113630000 	   -1.7092420000 	   -0.5867500000
C   	    4.0587970000 	   -0.8649160000 	    0.3745650000
C   	    3.2202990000 	   -0.1163340000 	    1.1962410000
C   	    1.8407230000 	   -0.2053150000 	    1.0533660000
N   	   -0.6273590000 	   -2.4155920000 	   -0.1615690000
N   	   -1.9440350000 	   -2.5888790000 	   -0.1934260000
H   	   -2.2897260000 	    1.9571140000 	    1.2359140000
H   	   -1.7011570000 	    4.3680700000 	    1.0860490000
H   	    0.1505920000 	    5.0964580000 	   -0.3995220000
H   	    1.4134050000 	    3.4134600000 	   -1.7159940000
H   	    0.8636690000 	    1.0189030000 	   -1.5200240000
H   	    1.6973740000 	   -2.4652920000 	   -1.4726100000
H   	    4.1600960000 	   -2.2991540000 	   -1.2288960000
H   	    5.1374290000 	   -0.7912960000 	    0.4860100000
H   	    3.6409160000 	    0.5381590000 	    1.9549830000
H   	    1.1924350000 	    0.3805770000 	    1.7000590000
H   	   -2.2565580000 	   -3.5498330000 	   -0.2414090000
