10
tauto -446.634037712
O   	    1.8755340000 	    1.0961310000 	   -0.0001270000
N   	    1.4120140000 	   -0.0361760000 	   -0.0000140000
C   	   -0.0375490000 	   -0.1033820000 	   -0.0000160000
N   	   -0.7822380000 	   -1.1741750000 	   -0.0001240000
C   	   -2.0276480000 	   -0.6324900000 	   -0.0000220000
N   	   -2.0679280000 	    0.6916520000 	    0.0000620000
N   	   -0.7712880000 	    1.0175450000 	    0.0000860000
H   	   -0.4510570000 	    1.9760040000 	    0.0001110000
O   	    2.0292290000 	   -1.0741830000 	    0.0001420000
H   	   -2.9297880000 	   -1.2282790000 	   -0.0000710000
