14
tauto -320.793257261
C   	   -1.3834080000 	   -1.6477520000 	    0.0000790000
C   	   -0.2239830000 	   -0.7061560000 	   -0.0000730000
N   	    1.0384150000 	   -1.1241320000 	   -0.0001420000
N   	    1.7314590000 	   -0.0000030000 	   -0.0000260000
H   	    2.7390470000 	   -0.0000040000 	   -0.0000930000
N   	    1.0384180000 	    1.1241290000 	    0.0002050000
C   	   -0.2239800000 	    0.7061550000 	    0.0000640000
C   	   -1.3834020000 	    1.6477570000 	   -0.0000930000
H   	   -1.0254210000 	   -2.6800720000 	   -0.0040140000
H   	   -2.0167560000 	   -1.4978480000 	   -0.8814790000
H   	   -2.0120600000 	   -1.5033720000 	    0.8859280000
H   	   -1.0254070000 	    2.6800790000 	    0.0020350000
H   	   -2.0156840000 	    1.4991940000 	    0.8824590000
H   	   -2.0131250000 	    1.5020350000 	   -0.8849590000
