17
tauto -309.782545966
C   	   -2.3941650000 	   -0.6823660000 	    0.5481210000
C   	   -1.7905870000 	    0.1371600000 	   -0.5994510000
C   	   -0.8470290000 	    1.1872170000 	   -0.0844150000
C   	    0.4588650000 	    1.0515530000 	    0.1831590000
C   	    1.2455450000 	   -0.1941830000 	   -0.0121350000
C   	    2.7488320000 	   -0.0475070000 	    0.1065540000
O   	    0.7336160000 	   -1.2746650000 	   -0.2492930000
H   	   -3.1216230000 	   -1.4043870000 	    0.1631760000
H   	   -2.9050150000 	   -0.0416830000 	    1.2757710000
H   	   -1.6021390000 	   -1.2334610000 	    1.0626850000
H   	   -2.5925030000 	    0.6293550000 	   -1.1626120000
H   	   -1.2626340000 	   -0.5406810000 	   -1.2741330000
H   	   -1.2883400000 	    2.1658550000 	    0.1117800000
H   	    1.0127210000 	    1.9148530000 	    0.5498090000
H   	    3.1194990000 	    0.6799440000 	   -0.6251460000
H   	    3.2273110000 	   -1.0141240000 	   -0.0587850000
H   	    3.0150290000 	    0.3304090000 	    1.1008010000
