45
tauto -1146.18750204
C   	    5.7460850000 	    0.6206510000 	   -0.7291790000
C   	    4.9763620000 	    0.6766910000 	    0.5763590000
O   	    3.9500630000 	   -0.3341420000 	    0.6253010000
C   	    2.8090850000 	   -0.0359170000 	   -0.0220400000
C   	    1.8125020000 	   -1.1357660000 	    0.0388570000
C   	    2.0391270000 	   -2.4680500000 	    0.0664340000
C   	    3.3196630000 	   -3.2344240000 	    0.1364350000
C   	    0.7228430000 	   -3.2157970000 	   -0.0315870000
N   	   -0.2181030000 	   -2.1244820000 	   -0.1157470000
N   	   -1.5340260000 	   -2.1086240000 	   -0.2032650000
C   	   -1.8251890000 	   -0.8030100000 	   -0.2204850000
C   	   -3.2410360000 	   -0.3654720000 	   -0.3017270000
O   	   -4.0924630000 	   -1.3875230000 	   -0.1331080000
C   	   -5.4875440000 	   -1.0583040000 	   -0.2159860000
C   	   -6.0011330000 	   -0.5015070000 	    1.0988160000
O   	   -3.5902310000 	    0.7778190000 	   -0.4993010000
C   	   -0.6630810000 	    0.0266100000 	   -0.1283180000
C   	   -0.5468890000 	    1.4993260000 	   -0.0275600000
C   	   -1.1032240000 	    2.3487960000 	   -0.9860120000
C   	   -0.9558700000 	    3.7261860000 	   -0.8760600000
C   	   -0.2550620000 	    4.2757240000 	    0.1939410000
C   	    0.2980910000 	    3.4379740000 	    1.1567020000
C   	    0.1518860000 	    2.0601420000 	    1.0443810000
C   	    0.3637540000 	   -0.9012710000 	   -0.0689730000
O   	    2.6082030000 	    1.0084690000 	   -0.5938900000
H   	    6.5578720000 	    1.3552440000 	   -0.7132630000
H   	    5.0882540000 	    0.8545410000 	   -1.5703290000
H   	    6.1839630000 	   -0.3713700000 	   -0.8806020000
H   	    4.5094990000 	    1.6544430000 	    0.7188640000
H   	    5.6160250000 	    0.4502500000 	    1.4324110000
H   	    3.3900580000 	   -3.7694750000 	    1.0915950000
H   	    4.1854070000 	   -2.5780450000 	    0.0532680000
H   	    3.3587750000 	   -3.9878570000 	   -0.6589850000
H   	    0.5287420000 	   -3.8374410000 	    0.8500580000
H   	    0.6776210000 	   -3.8524860000 	   -0.9225590000
H   	   -5.9736790000 	   -2.0041030000 	   -0.4670350000
H   	   -5.6383830000 	   -0.3448050000 	   -1.0306320000
H   	   -5.8065960000 	   -1.2036920000 	    1.9153710000
H   	   -7.0815700000 	   -0.3328160000 	    1.0365760000
H   	   -5.5145980000 	    0.4512080000 	    1.3236110000
H   	   -1.6629780000 	    1.9244070000 	   -1.8129480000
H   	   -1.3936290000 	    4.3748450000 	   -1.6306780000
H   	   -0.1435800000 	    5.3539030000 	    0.2788620000
H   	    0.8415630000 	    3.8572070000 	    1.9999430000
H   	    0.5753370000 	    1.4053090000 	    1.8035460000
