18
tauto -510.29959879
C   	    3.1515760000 	   -0.9558880000 	    0.0002000000
C   	    1.7297090000 	   -0.4585350000 	   -0.0002190000
C   	    1.4680150000 	    0.9304480000 	   -0.0001920000
C   	    0.1630860000 	    1.4005120000 	   -0.0000360000
O   	   -0.1705840000 	    2.7065740000 	    0.0000620000
C   	   -0.8618000000 	    0.4443420000 	    0.0000200000
C   	   -2.2867580000 	    0.4001170000 	    0.0001980000
N   	   -2.7172860000 	   -0.8406580000 	   -0.0000710000
N   	   -1.6127900000 	   -1.6217270000 	   -0.0000070000
H   	   -1.7047610000 	   -2.6245670000 	    0.0003060000
C   	   -0.4612880000 	   -0.9018450000 	   -0.0000650000
N   	    0.7839850000 	   -1.3915510000 	   -0.0001630000
H   	    3.8735210000 	   -0.1346690000 	   -0.0043370000
H   	    3.3278130000 	   -1.5841140000 	   -0.8784080000
H   	    3.3300970000 	   -1.5759390000 	    0.8841910000
H   	    2.3015440000 	    1.6292430000 	   -0.0002360000
H   	    0.6359310000 	    3.2396250000 	   -0.0000740000
H   	   -2.9920680000 	    1.2204730000 	    0.0003190000
