18
tauto -510.298270937
C   	    3.1843230000 	   -0.8704550000 	    0.0001050000
C   	    1.7744820000 	   -0.3404710000 	   -0.0001140000
N   	    0.7805420000 	   -1.2894830000 	   -0.0000600000
C   	   -0.5348330000 	   -0.8870810000 	    0.0000040000
N   	   -1.5823690000 	   -1.6951630000 	    0.0000080000
N   	   -2.6197830000 	   -0.8269790000 	   -0.0000310000
H   	   -3.5542770000 	   -1.2036900000 	   -0.0000650000
C   	   -2.2605870000 	    0.4684350000 	    0.0000770000
C   	   -0.8778170000 	    0.4814410000 	    0.0000410000
C   	    1.4965840000 	    0.9912080000 	   -0.0000860000
C   	    0.1375410000 	    1.5394750000 	    0.0000400000
O   	   -0.1256700000 	    2.7361370000 	   -0.0000150000
H   	    3.2112940000 	   -1.9646620000 	   -0.0030150000
H   	    3.7231200000 	   -0.5213910000 	    0.8855540000
H   	    3.7252410000 	   -0.5163180000 	   -0.8820050000
H   	    0.9985350000 	   -2.2735620000 	   -0.0001230000
H   	   -2.9815090000 	    1.2735350000 	    0.0001170000
H   	    2.3160740000 	    1.7030510000 	   -0.0001610000
