17
tauto -584.193847614
O   	    2.9230900000 	   -1.4224240000 	    0.0010500000
N   	    2.5856950000 	   -0.2500290000 	    0.0000010000
C   	    1.1483880000 	    0.0519100000 	    0.0001000000
C   	    0.2710910000 	   -0.9922100000 	   -0.0001120000
C   	   -1.1057660000 	   -0.6629220000 	   -0.0001550000
C   	   -2.2951860000 	   -1.3888590000 	   -0.0004670000
N   	   -3.2701620000 	   -0.4658840000 	   -0.0000620000
H   	   -4.2641010000 	   -0.6440780000 	   -0.0000410000
N   	   -2.8614610000 	    0.8070630000 	    0.0000530000
C   	   -1.5271660000 	    0.7022150000 	    0.0001520000
C   	   -0.5684940000 	    1.7564270000 	    0.0004250000
C   	    0.7522830000 	    1.4248220000 	    0.0003340000
O   	    3.3611300000 	    0.6910480000 	   -0.0012520000
H   	    0.6346410000 	   -2.0136320000 	   -0.0002000000
H   	   -2.5054040000 	   -2.4489250000 	   -0.0008220000
H   	   -0.8969800000 	    2.7907880000 	    0.0006770000
H   	    1.5286760000 	    2.1805040000 	    0.0003930000
