26
tauto -573.847781141
C   	   -1.6564790000 	    2.8255180000 	   -0.0001820000
C   	   -1.5855830000 	    1.3314720000 	   -0.0000360000
N   	   -2.6983130000 	    0.6009430000 	    0.0000390000
N   	   -2.3052380000 	   -0.6964690000 	   -0.0001430000
C   	   -3.2919180000 	   -1.7514410000 	    0.0000730000
C   	   -0.9650890000 	   -0.7922180000 	    0.0001520000
C   	    0.0918400000 	   -1.8552000000 	   -0.0000620000
C   	   -0.4544250000 	    0.4835080000 	    0.0002120000
C   	    1.0079610000 	    0.3939270000 	    0.0001200000
C   	    1.3442150000 	   -0.9792400000 	   -0.0000200000
C   	    2.6690690000 	   -1.3772930000 	   -0.0001130000
C   	    3.6720200000 	   -0.4033850000 	   -0.0000840000
C   	    3.3411910000 	    0.9484260000 	    0.0000460000
C   	    2.0069600000 	    1.3582780000 	    0.0001530000
H   	   -2.7011340000 	    3.1464820000 	   -0.0007130000
H   	   -1.1635080000 	    3.2454850000 	   -0.8841900000
H   	   -1.1643840000 	    3.2455920000 	    0.8842620000
H   	   -4.2723360000 	   -1.2752230000 	   -0.0018210000
H   	   -3.1925890000 	   -2.3760770000 	    0.8936920000
H   	   -3.1902800000 	   -2.3784660000 	   -0.8916030000
H   	    0.0483700000 	   -2.5030510000 	   -0.8845510000
H   	    0.0485310000 	   -2.5034260000 	    0.8841530000
H   	    2.9314390000 	   -2.4335480000 	   -0.0002220000
H   	    4.7162640000 	   -0.7049930000 	   -0.0001670000
H   	    4.1309340000 	    1.6956400000 	    0.0000680000
H   	    1.7549750000 	    2.4161540000 	    0.0002680000
