27
tauto -757.298352435
C   	   -4.6176510000 	   -1.4024170000 	    0.1754580000
C   	   -3.5742020000 	   -0.3364590000 	    0.0394360000
C   	   -2.2047270000 	   -0.4651400000 	    0.0587560000
N   	   -1.3400700000 	   -1.5169620000 	    0.1892000000
N   	   -0.0135820000 	   -1.3878990000 	    0.1931800000
C   	    0.5230540000 	   -0.2145690000 	    0.0448570000
C   	    2.0085830000 	   -0.1603160000 	    0.0213010000
C   	    2.7180760000 	    0.9674370000 	    0.4468720000
C   	    4.1093710000 	    0.9591230000 	    0.4455820000
C   	    4.8088680000 	   -0.1640000000 	    0.0183380000
C   	    4.1082860000 	   -1.2888810000 	   -0.4095650000
C   	    2.7202350000 	   -1.2864990000 	   -0.4084960000
C   	   -0.2755530000 	    1.0361430000 	   -0.1285870000
O   	    0.1660800000 	    2.1481170000 	   -0.2826290000
N   	   -1.6562080000 	    0.7807820000 	   -0.0970360000
N   	   -2.6069120000 	    1.7356480000 	   -0.2219520000
C   	   -3.7381270000 	    1.0609620000 	   -0.1385590000
H   	   -4.5688530000 	   -1.9059470000 	    1.1483930000
H   	   -4.5287910000 	   -2.1682940000 	   -0.6043720000
H   	   -5.6158390000 	   -0.9646080000 	    0.0864160000
H   	   -1.6797150000 	   -2.4545140000 	    0.3323040000
H   	    2.1839400000 	    1.8528750000 	    0.7696730000
H   	    4.6474890000 	    1.8416960000 	    0.7814400000
H   	    5.8959830000 	   -0.1628180000 	    0.0144890000
H   	    4.6448790000 	   -2.1701860000 	   -0.7515060000
H   	    2.1713220000 	   -2.1619210000 	   -0.7428360000
H   	   -4.6789250000 	    1.5954860000 	   -0.2090660000
