18
tauto -506.431016697
C   	   -2.9826460000 	   -0.1692090000 	   -0.0312840000
N   	   -1.5356230000 	   -0.3253870000 	    0.0084470000
C   	   -0.9837100000 	   -1.6097380000 	    0.0161430000
N   	    0.2622930000 	   -1.8966330000 	    0.0117530000
C   	   -0.7165990000 	    0.7717360000 	    0.0043060000
N   	   -1.2948160000 	    2.0084060000 	   -0.0415040000
C   	    0.6395600000 	    0.5401430000 	   -0.0115690000
C   	    1.1141510000 	   -0.8146790000 	   -0.0033970000
N   	    2.4281290000 	   -0.8580290000 	    0.0039990000
N   	    2.8699570000 	    0.4395800000 	   -0.0029840000
C   	    1.8516060000 	    1.2779490000 	   -0.0083220000
H   	   -3.4389990000 	   -1.1503560000 	   -0.1671130000
H   	   -3.2719940000 	    0.4688790000 	   -0.8715650000
H   	   -3.3642720000 	    0.2561990000 	    0.9042590000
H   	   -1.7280660000 	   -2.4032330000 	    0.0263400000
H   	   -2.1991140000 	    2.1456690000 	    0.3837960000
H   	   -0.6567950000 	    2.7797360000 	    0.0895940000
H   	    2.0154880000 	    2.3503470000 	   -0.0185530000
