17
tauto -584.192732208
O   	    2.8978320000 	   -1.4321130000 	    0.0001800000
N   	    2.5753640000 	   -0.2568800000 	   -0.0000260000
C   	    1.1384960000 	    0.0633380000 	    0.0000140000
C   	    0.2504180000 	   -0.9694030000 	   -0.0000270000
C   	   -1.1237420000 	   -0.6163970000 	   -0.0000280000
N   	   -2.1750030000 	   -1.4503990000 	   -0.0001070000
N   	   -3.2165180000 	   -0.6229910000 	    0.0000400000
H   	   -4.1421700000 	   -1.0268620000 	    0.0000930000
C   	   -2.9179060000 	    0.6912000000 	   -0.0000510000
C   	   -1.5282270000 	    0.7523430000 	    0.0000340000
C   	   -0.5526360000 	    1.7895190000 	    0.0000840000
C   	    0.7650670000 	    1.4420980000 	    0.0000670000
O   	    3.3606840000 	    0.6759990000 	   -0.0001880000
H   	    0.5805970000 	   -2.0014500000 	   -0.0000630000
H   	   -3.6854060000 	    1.4517960000 	   -0.0000520000
H   	   -0.8486900000 	    2.8345000000 	    0.0001160000
H   	    1.5518090000 	    2.1866310000 	    0.0000650000
