13
tauto -503.069349904
O   	    1.6775180000 	   -1.9920790000 	   -0.0000050000
C   	    1.1544850000 	   -0.9015610000 	    0.0000600000
N   	    1.9126560000 	    0.2861550000 	    0.0000310000
C   	    1.4098480000 	    1.5690930000 	    0.0000220000
N   	    0.1667850000 	    1.8958120000 	   -0.0000130000
C   	   -0.6703820000 	    0.8004160000 	   -0.0000380000
N   	   -2.0031300000 	    0.8360650000 	   -0.0001130000
N   	   -2.3122960000 	   -0.4505360000 	    0.0002120000
H   	   -3.2773720000 	   -0.7484820000 	    0.0004090000
N   	   -1.3393290000 	   -1.3306930000 	   -0.0002020000
C   	   -0.2602130000 	   -0.5467600000 	   -0.0000160000
H   	    2.9153600000 	    0.1495350000 	    0.0000610000
H   	    2.1666360000 	    2.3508250000 	    0.0000050000
