24
tauto -660.006164319
C   	    2.9110610000 	    2.4874550000 	    0.0002130000
C   	    1.9771610000 	    1.3220990000 	    0.0000360000
C   	    2.2419970000 	   -0.0766730000 	    0.0005230000
C   	    1.0154390000 	   -0.6960390000 	    0.0000670000
N   	    1.1477480000 	   -2.0500270000 	   -0.0003540000
N   	    2.4223860000 	   -2.2915030000 	    0.0000410000
N   	    3.1028770000 	   -1.1296600000 	    0.0002210000
H   	    4.1096500000 	   -1.1663280000 	    0.0010710000
N   	    0.6652720000 	    1.4929450000 	   -0.0004430000
N   	    0.0604780000 	    0.2794470000 	   -0.0007420000
C   	   -1.3490920000 	    0.1513770000 	   -0.0003210000
C   	   -1.9154070000 	   -1.1225090000 	   -0.0001820000
C   	   -3.3004270000 	   -1.2463020000 	    0.0002030000
C   	   -4.1140530000 	   -0.1176270000 	    0.0004070000
C   	   -3.5315360000 	    1.1469870000 	    0.0002350000
C   	   -2.1497540000 	    1.2914970000 	   -0.0001290000
H   	    3.5569000000 	    2.4811030000 	   -0.8847480000
H   	    3.5557700000 	    2.4818070000 	    0.8859890000
H   	    2.3319140000 	    3.4134410000 	   -0.0005310000
H   	   -1.2792560000 	   -2.0036620000 	   -0.0003560000
H   	   -3.7434830000 	   -2.2386430000 	    0.0003470000
H   	   -5.1954980000 	   -0.2227920000 	    0.0007030000
H   	   -4.1577500000 	    2.0354710000 	    0.0003960000
H   	   -1.6819080000 	    2.2695890000 	   -0.0002280000
