14
tauto -395.799862695
C   	   -2.2749780000 	   -0.1358410000 	   -0.0001670000
N   	   -1.5277460000 	   -1.1994270000 	    0.0000100000
C   	   -0.2324300000 	   -0.7070620000 	   -0.0000880000
N   	    0.8803540000 	   -1.4431480000 	   -0.0002320000
C   	    2.0138760000 	   -0.7534480000 	   -0.0002040000
C   	    2.1024080000 	    0.6507060000 	   -0.0000180000
C   	    0.9498580000 	    1.4200080000 	    0.0001290000
C   	   -0.2411660000 	    0.7033720000 	    0.0000880000
N   	   -1.5769500000 	    1.0448880000 	    0.0003740000
H   	   -1.9698910000 	    1.9721740000 	    0.0005820000
H   	   -3.3589500000 	   -0.1415800000 	   -0.0001610000
H   	    2.9300330000 	   -1.3422120000 	   -0.0002970000
H   	    3.0802450000 	    1.1226610000 	    0.0000400000
H   	    0.9835480000 	    2.5063690000 	    0.0003290000
