18
tauto -419.007868966
C   	    3.1566910000 	   -0.6059940000 	   -0.2800210000
C   	    1.7244740000 	   -0.2195040000 	   -0.0238630000
C   	    0.7387400000 	   -1.1249180000 	    0.0924700000
C   	   -0.6351470000 	   -0.6653830000 	    0.4616650000
N   	   -1.8357710000 	   -1.3655170000 	    0.0400080000
C   	   -2.6219210000 	   -0.4115040000 	   -0.3112620000
N   	   -2.1284870000 	    0.9164000000 	   -0.2944250000
C   	   -0.9105230000 	    0.7605850000 	    0.1132440000
C   	    0.1735150000 	    1.7202870000 	    0.1512660000
C   	    1.4243640000 	    1.2213260000 	    0.0795360000
H   	    3.2646020000 	   -1.6897510000 	   -0.3784890000
H   	    3.8067720000 	   -0.2724580000 	    0.5379010000
H   	    3.5303860000 	   -0.1414280000 	   -1.2002210000
H   	    0.9279120000 	   -2.1934370000 	    0.0250100000
H   	   -0.6706960000 	   -0.7133700000 	    1.5693560000
H   	   -3.6469830000 	   -0.5857890000 	   -0.6272790000
H   	   -0.0340350000 	    2.7852350000 	    0.1198100000
H   	    2.2706940000 	    1.9054510000 	    0.0366250000
