17
tauto -584.14631055
O   	   -2.1400280000 	   -1.5954940000 	    0.3739670000
N   	   -2.1393760000 	   -0.4243980000 	    0.0523160000
C   	   -0.8456160000 	    0.2616070000 	    0.0430300000
C   	   -0.8024820000 	    1.6028960000 	   -0.0845050000
C   	    0.4591270000 	    2.3342700000 	   -0.1554270000
C   	    1.6365740000 	    1.7177880000 	    0.0348960000
C   	    1.6428200000 	    0.2799970000 	    0.4427870000
N   	    2.7226200000 	   -0.6102850000 	    0.0670630000
C   	    2.1118430000 	   -1.6737770000 	   -0.3122550000
N   	    0.6930880000 	   -1.6630740000 	   -0.3528320000
C   	    0.4066990000 	   -0.4748830000 	    0.0543850000
O   	   -3.1277250000 	    0.2321990000 	   -0.2349390000
H   	   -1.7420820000 	    2.1392820000 	   -0.1761760000
H   	    0.4154860000 	    3.3974480000 	   -0.3703500000
H   	    2.5832110000 	    2.2486600000 	   -0.0081730000
H   	    1.6622060000 	    0.2947540000 	    1.5515110000
H   	    2.6350810000 	   -2.5768710000 	   -0.6123360000
