16
tauto -271.679334842
C   	   -1.1701220000 	   -1.2653650000 	    0.5601790000
C   	   -0.6469180000 	   -0.1571420000 	   -0.3657480000
C   	   -1.5444050000 	    1.0747390000 	   -0.2962500000
C   	    0.8055910000 	    0.1373210000 	   -0.0599680000
O   	    1.6667600000 	   -0.9007290000 	   -0.3098200000
C   	    1.2888270000 	    1.2646740000 	    0.4571350000
H   	   -2.1927830000 	   -1.5479090000 	    0.2879700000
H   	   -1.1743730000 	   -0.9132950000 	    1.5977580000
H   	   -0.5479620000 	   -2.1661210000 	    0.5207570000
H   	   -0.6791870000 	   -0.5348860000 	   -1.4017870000
H   	   -1.5853540000 	    1.4695510000 	    0.7253180000
H   	   -2.5657750000 	    0.8156470000 	   -0.5942140000
H   	   -1.1839270000 	    1.8696610000 	   -0.9563430000
H   	    1.2066520000 	   -1.5743570000 	   -0.8253020000
H   	    0.6398570000 	    2.0971380000 	    0.6984870000
H   	    2.3509290000 	    1.3650420000 	    0.6538220000
