11
tauto -430.611375686
O   	    1.9761860000 	    1.0907590000 	   -0.0002830000
N   	    1.4468930000 	   -0.0132420000 	   -0.0000190000
C   	    0.0016880000 	   -0.0192180000 	   -0.0000130000
C   	   -0.7788590000 	    1.1030590000 	    0.0002050000
N   	   -2.0513720000 	    0.6091080000 	    0.0000870000
H   	   -2.8992410000 	    1.1557550000 	    0.0001720000
C   	   -1.9652540000 	   -0.7555930000 	   -0.0001550000
N   	   -0.7251830000 	   -1.1664880000 	   -0.0001150000
O   	    2.0286110000 	   -1.0774730000 	    0.0002660000
H   	   -0.5359980000 	    2.1538070000 	    0.0003660000
H   	   -2.8409470000 	   -1.3909870000 	   -0.0002950000
