16
tauto -454.891584802
O   	    2.2818520000 	   -1.4690030000 	   -0.0000070000
N   	    1.5637600000 	   -0.4144160000 	   -0.0000050000
C   	    1.9625770000 	    0.8491820000 	   -0.0000130000
N   	    0.8763710000 	    1.6927540000 	    0.0000130000
H   	    0.9279520000 	    2.6969890000 	    0.0000260000
C   	   -0.2655520000 	    0.9245670000 	    0.0000010000
C   	    0.1576200000 	   -0.4052970000 	    0.0000080000
C   	   -0.7272060000 	   -1.4778660000 	    0.0000190000
C   	   -2.0749730000 	   -1.1693030000 	   -0.0000010000
C   	   -2.5140810000 	    0.1718870000 	   -0.0000140000
C   	   -1.6295260000 	    1.2363070000 	    0.0000000000
H   	    2.9978490000 	    1.1488930000 	   -0.0000100000
H   	   -0.3409460000 	   -2.4918400000 	    0.0000230000
H   	   -2.8120000000 	   -1.9670300000 	   -0.0000100000
H   	   -3.5816250000 	    0.3752490000 	   -0.0000270000
H   	   -1.9801140000 	    2.2645230000 	    0.0000030000
