17
tauto -526.359442625
C   	   -2.8424870000 	   -0.2809840000 	    0.0000460000
N   	   -1.4071840000 	   -0.5065690000 	   -0.0000960000
C   	   -0.8332410000 	   -1.7451680000 	   -0.0000140000
N   	    0.4264690000 	   -2.0326630000 	    0.0000380000
C   	    1.4037470000 	   -1.0196240000 	    0.0001150000
O   	    2.6008040000 	   -1.2429850000 	   -0.0000090000
C   	   -0.5250280000 	    0.5501110000 	   -0.0000480000
C   	    0.8238020000 	    0.3100470000 	    0.0000320000
N   	    1.3884810000 	    1.5640940000 	   -0.0001640000
H   	    2.3797540000 	    1.7533350000 	   -0.0002740000
C   	    0.3665160000 	    2.4524040000 	    0.0002350000
N   	   -0.8225630000 	    1.8768480000 	   -0.0001170000
H   	   -3.3490880000 	   -1.2482420000 	   -0.0001190000
H   	   -3.1356340000 	    0.2846300000 	   -0.8883410000
H   	   -3.1355330000 	    0.2842780000 	    0.8886930000
H   	   -1.5532330000 	   -2.5648340000 	   -0.0000430000
H   	    0.5310210000 	    3.5220280000 	    0.0003330000
