19
tauto -310.984202367
C   	    1.0501310000 	   -0.7029660000 	   -1.2595290000
C   	    0.5593420000 	    0.0341520000 	    0.0000100000
C   	    1.0500380000 	   -0.7029950000 	    1.2595640000
C   	    1.1497660000 	    1.4460270000 	    0.0000250000
C   	   -0.9640400000 	    0.0684820000 	   -0.0000330000
O   	   -1.5842340000 	   -1.1545110000 	    0.0000730000
C   	   -1.7294510000 	    1.1587160000 	   -0.0000490000
H   	    2.1453700000 	   -0.7394990000 	   -1.2741550000
H   	    0.7091650000 	   -0.1896340000 	   -2.1648500000
H   	    0.6917110000 	   -1.7384570000 	   -1.3113070000
H   	    2.1452730000 	   -0.7396470000 	    1.2742170000
H   	    0.6914540000 	   -1.7384220000 	    1.3113320000
H   	    0.7091070000 	   -0.1896090000 	    2.1648670000
H   	    2.2440480000 	    1.3891790000 	    0.0000120000
H   	    0.8398140000 	    2.0067050000 	    0.8881850000
H   	    0.8397980000 	    2.0067420000 	   -0.8881070000
H   	   -0.9200560000 	   -1.8531010000 	   -0.0006590000
H   	   -1.3066100000 	    2.1544570000 	    0.0000490000
H   	   -2.8099130000 	    1.0588790000 	   -0.0000990000
