14
tauto -487.069449431
O   	    1.5938710000 	    2.0325510000 	    0.0002240000
C   	    1.1282270000 	    0.9063070000 	    0.0000370000
N   	    1.9335890000 	   -0.2449150000 	    0.0001020000
C   	    1.4701330000 	   -1.5399710000 	    0.0000200000
N   	    0.2313130000 	   -1.8927270000 	   -0.0000950000
C   	   -0.6431500000 	   -0.8315380000 	   -0.0000980000
C   	   -0.2463440000 	    0.4942060000 	   -0.0000150000
N   	   -1.4048510000 	    1.2269500000 	   -0.0000160000
H   	   -1.4702200000 	    2.2334020000 	    0.0000090000
C   	   -2.4193890000 	    0.3214180000 	   -0.0000530000
N   	   -2.0082550000 	   -0.9253970000 	   -0.0001840000
H   	    2.9306820000 	   -0.0719010000 	    0.0002100000
H   	    2.2464090000 	   -2.3020430000 	    0.0000610000
H   	   -3.4572830000 	    0.6302210000 	   -0.0000610000
