18
tauto -506.473103889
C   	   -2.9723830000 	   -0.1387520000 	   -0.0250860000
N   	   -1.5277940000 	   -0.3261400000 	    0.0084470000
C   	   -0.6983740000 	    0.7635270000 	    0.0035450000
N   	   -1.2232330000 	    2.0245480000 	   -0.0576110000
C   	    0.6515760000 	    0.5025620000 	   -0.0105270000
N   	    1.7194870000 	    1.3511680000 	   -0.0014990000
C   	    2.7275600000 	    0.4809500000 	    0.0013770000
N   	    2.4402960000 	   -0.8516680000 	    0.0011990000
C   	    1.1110660000 	   -0.8453950000 	   -0.0070040000
N   	    0.2548980000 	   -1.9136860000 	    0.0077170000
C   	   -0.9957640000 	   -1.6081950000 	    0.0159550000
H   	   -3.2397050000 	    0.5343310000 	   -0.8443900000
H   	   -3.3395790000 	    0.2722100000 	    0.9220260000
H   	   -3.4513940000 	   -1.1046020000 	   -0.1891780000
H   	   -2.0653320000 	    2.2227860000 	    0.4633310000
H   	   -0.5050530000 	    2.7337900000 	    0.0349120000
H   	    3.7595070000 	    0.8192820000 	    0.0067140000
H   	   -1.7461050000 	   -2.3955360000 	    0.0292560000
