15
tauto -562.296551414
O   	   -0.3041680000 	    2.6561750000 	    0.0002860000
C   	   -0.3236760000 	    1.4474540000 	   -0.0000550000
C   	    0.7968330000 	    0.5191000000 	   -0.0000750000
N   	    2.1527170000 	    0.7702750000 	    0.0000440000
C   	    2.7098700000 	   -0.4010260000 	    0.0002070000
N   	    1.7817690000 	   -1.4321790000 	   -0.0000760000
H   	    1.9800350000 	   -2.4206750000 	   -0.0001450000
C   	    0.5620600000 	   -0.8320600000 	   -0.0001060000
N   	   -0.6816990000 	   -1.4102420000 	   -0.0002880000
N   	   -1.5580820000 	    0.7498110000 	   -0.0006490000
C   	   -1.8207510000 	   -0.6093990000 	    0.0001090000
O   	   -2.9376830000 	   -1.0803570000 	    0.0004280000
H   	    3.7727900000 	   -0.6036620000 	    0.0003390000
H   	   -0.8433800000 	   -2.4056500000 	    0.0006450000
H   	   -2.3835850000 	    1.3353770000 	   -0.0002430000
