18
tauto -506.493174972
C   	    2.7806430000 	   -0.7364480000 	    0.0001180000
N   	    1.3243510000 	   -0.7111580000 	   -0.0000330000
C   	    0.6617950000 	    0.4942220000 	   -0.0000370000
N   	    1.1708230000 	    1.7178910000 	    0.0000080000
C   	    0.0236480000 	    2.4671360000 	    0.0000230000
N   	   -1.1421210000 	    1.8321670000 	   -0.0000480000
C   	   -0.7430070000 	    0.5225850000 	   -0.0001020000
C   	   -1.4353470000 	   -0.6861350000 	   -0.0000090000
N   	   -2.7761240000 	   -0.7553940000 	    0.0000860000
N   	   -0.7443780000 	   -1.8616120000 	   -0.0000630000
C   	    0.5628970000 	   -1.8230160000 	   -0.0001050000
H   	    3.1527810000 	   -0.2194040000 	    0.8872070000
H   	    3.1529610000 	   -0.2188590000 	   -0.8865810000
H   	    3.1215220000 	   -1.7736770000 	   -0.0001930000
H   	    0.0811580000 	    3.5510230000 	    0.0000450000
H   	   -3.3148080000 	    0.0961020000 	    0.0002130000
H   	   -3.2315610000 	   -1.6530120000 	    0.0003850000
H   	    1.1063290000 	   -2.7654960000 	   -0.0000560000
