19
tauto -457.156818552
C   	   -1.8708340000 	    1.1117520000 	    0.0004170000
C   	   -1.0141310000 	    0.0400100000 	   -0.0000210000
C   	    0.4600270000 	    0.0302760000 	   -0.0000320000
C   	    1.1426530000 	   -1.1888980000 	    0.0002230000
C   	    2.5322660000 	   -1.2194260000 	    0.0002650000
C   	    3.2621200000 	   -0.0339960000 	    0.0000470000
C   	    2.5895710000 	    1.1849570000 	   -0.0002320000
C   	    1.2000830000 	    1.2163360000 	   -0.0002780000
N   	   -1.7364180000 	   -1.1353490000 	   -0.0004170000
C   	   -2.9933130000 	   -0.7792560000 	   -0.0002610000
N   	   -3.1346980000 	    0.5730930000 	    0.0001630000
H   	   -4.0016270000 	    1.0862950000 	    0.0008400000
H   	   -1.7072970000 	    2.1795270000 	    0.0007120000
H   	    0.5633160000 	   -2.1075960000 	    0.0003760000
H   	    3.0486460000 	   -2.1763330000 	    0.0004730000
H   	    4.3489680000 	   -0.0591300000 	    0.0000810000
H   	    3.1492040000 	    2.1172320000 	   -0.0004300000
H   	    0.6880260000 	    2.1765370000 	   -0.0005440000
H   	   -3.8420720000 	   -1.4512630000 	   -0.0004930000
