16
tauto -542.423533786
N   	   -3.0075040000 	   -0.9107290000 	   -0.0705180000
C   	   -1.6805540000 	   -0.5359930000 	   -0.0048850000
N   	   -1.4576850000 	    0.8264040000 	   -0.0044790000
C   	   -0.1922400000 	    1.4441260000 	    0.0038450000
O   	   -0.0704080000 	    2.6572400000 	   -0.0078230000
N   	   -0.7489820000 	   -1.4361810000 	    0.0061430000
C   	    0.5221970000 	   -0.9231230000 	   -0.0008990000
C   	    0.8154020000 	    0.4290280000 	    0.0138320000
N   	    2.1878540000 	    0.5128810000 	    0.0121510000
H   	    2.7313950000 	    1.3618630000 	    0.0154710000
C   	    2.6368650000 	   -0.7670120000 	   -0.0011360000
N   	    1.6742800000 	   -1.6625130000 	   -0.0075540000
H   	   -3.6553770000 	   -0.3677830000 	    0.4838180000
H   	   -3.1155880000 	   -1.9078120000 	    0.0597750000
H   	   -2.2377830000 	    1.4629650000 	   -0.1064850000
H   	    3.6948490000 	   -0.9983320000 	   -0.0047450000
