12
tauto -265.451027583
C   	   -2.1420970000 	   -0.0169150000 	    0.0000310000
C   	   -0.6455270000 	    0.0231690000 	   -0.0000560000
N   	    0.0581010000 	   -1.1021510000 	   -0.0000140000
N   	    1.3393360000 	   -0.7039740000 	    0.0000480000
H   	    2.0654180000 	   -1.4014310000 	   -0.0000240000
C   	    1.4782650000 	    0.6410590000 	    0.0000310000
C   	    0.2046150000 	    1.1565850000 	   -0.0000560000
H   	   -2.4815160000 	   -1.0556890000 	   -0.0024880000
H   	   -2.5538850000 	    0.4840950000 	   -0.8827190000
H   	   -2.5536850000 	    0.4796660000 	    0.8853870000
H   	    2.4511190000 	    1.1134040000 	    0.0000300000
H   	   -0.0810530000 	    2.1994450000 	   -0.0001160000
