16
tauto -396.948883003
C   	    3.0769520000 	   -0.0507990000 	    0.0230470000
C   	    1.5922930000 	    0.0964600000 	    0.0150710000
C   	    0.8129550000 	    1.2023750000 	   -0.0149090000
C   	   -0.5575630000 	    0.7451390000 	   -0.0477720000
N   	   -1.8023450000 	    1.1801900000 	   -0.0010690000
C   	   -2.5503190000 	    0.0310920000 	    0.0297540000
C   	   -1.7775960000 	   -1.1099030000 	    0.0286570000
N   	   -0.4980830000 	   -0.6167570000 	   -0.0594860000
N   	    0.7977250000 	   -1.0711890000 	    0.0881310000
H   	    1.0363900000 	   -1.8160310000 	   -0.5590800000
H   	    3.5481640000 	    0.9335370000 	   -0.0224350000
H   	    3.4300310000 	   -0.6316500000 	   -0.8379500000
H   	    3.4183050000 	   -0.5574400000 	    0.9319490000
H   	    1.1495060000 	    2.2289840000 	    0.0005130000
H   	   -3.6323540000 	    0.0738590000 	    0.0486720000
H   	   -2.0114570000 	   -2.1631580000 	    0.0422120000
