11
tauto -430.592260949
O   	    1.9936980000 	    1.0789460000 	   -0.0006860000
N   	    1.4454670000 	   -0.0124370000 	    0.0000270000
C   	   -0.0054340000 	    0.0117590000 	    0.0000250000
N   	   -0.6897020000 	   -1.1163730000 	   -0.0004090000
N   	   -1.9512700000 	   -0.7007280000 	   -0.0002730000
H   	   -2.6851470000 	   -1.3928900000 	   -0.0006050000
C   	   -2.0835910000 	    0.6509160000 	    0.0002580000
C   	   -0.8096590000 	    1.1642940000 	    0.0004220000
O   	    2.0048840000 	   -1.0894310000 	    0.0006500000
H   	   -3.0536190000 	    1.1275280000 	    0.0004670000
H   	   -0.4892470000 	    2.1941890000 	    0.0007840000
