17
tauto -584.225762475
O   	    3.3563820000 	    0.6932950000 	    0.0000220000
N   	    2.5746100000 	   -0.2431830000 	    0.0000360000
C   	    1.1382200000 	    0.0655620000 	    0.0000410000
C   	    0.7540030000 	    1.4166840000 	    0.0001840000
C   	   -0.5850200000 	    1.7545760000 	    0.0002210000
C   	    0.2414700000 	   -0.9858430000 	   -0.0000880000
C   	   -1.1120090000 	   -0.6509330000 	   -0.0000640000
C   	   -1.5042820000 	    0.7017620000 	    0.0000870000
N   	   -2.8791680000 	    0.6601760000 	    0.0001470000
H   	   -3.5090830000 	    1.4465200000 	    0.0002800000
C   	   -3.2339910000 	   -0.6668720000 	   -0.0002730000
N   	   -2.2227870000 	   -1.4821140000 	   -0.0001030000
O   	    2.9031590000 	   -1.4169040000 	   -0.0002230000
H   	    1.5261520000 	    2.1766640000 	    0.0002850000
H   	   -0.8986220000 	    2.7941940000 	    0.0003690000
H   	    0.5813650000 	   -2.0146550000 	   -0.0001710000
H   	   -4.2750720000 	   -0.9676260000 	   -0.0003600000
