11
tauto -281.494354278
N   	    2.0658010000 	   -0.1285700000 	   -0.0000050000
C   	    0.6650960000 	    0.0566460000 	   -0.0000230000
C   	   -0.1824910000 	    1.1329070000 	    0.0000040000
N   	   -1.4940140000 	    0.7241590000 	    0.0000100000
C   	   -1.4442280000 	   -0.5858170000 	    0.0000040000
N   	   -0.1658510000 	   -1.0427890000 	   -0.0000080000
H   	    0.1573870000 	   -1.9977850000 	   -0.0000380000
H   	    2.4951760000 	    0.2855780000 	    0.8199310000
H   	    2.4952300000 	    0.2858350000 	   -0.8197830000
H   	    0.0802450000 	    2.1837320000 	   -0.0000050000
H   	   -2.2998540000 	   -1.2493790000 	    0.0000080000
