18
tauto -493.275692169
C   	   -3.3547560000 	   -0.2005500000 	    0.8412670000
C   	   -2.6894830000 	   -0.4373450000 	   -0.5014550000
O   	   -1.2790320000 	   -0.6687450000 	   -0.3501400000
C   	   -0.5209090000 	    0.4246960000 	   -0.2173270000
C   	    0.9185200000 	    0.1131820000 	   -0.0596840000
N   	    1.3981830000 	   -1.1269120000 	   -0.0579580000
N   	    2.7081770000 	   -0.9641380000 	    0.1061350000
H   	    3.2962380000 	   -1.7822240000 	    0.1393200000
C   	    3.0881380000 	    0.3358160000 	    0.2092920000
C   	    1.9381320000 	    1.0765610000 	    0.1056060000
O   	   -0.9436640000 	    1.5606640000 	   -0.2250820000
H   	   -4.4374330000 	   -0.1015720000 	    0.7092130000
H   	   -2.9771450000 	    0.7192470000 	    1.2955720000
H   	   -3.1631530000 	   -1.0381060000 	    1.5189440000
H   	   -2.8395780000 	    0.4129160000 	   -1.1721710000
H   	   -3.0623230000 	   -1.3464280000 	   -0.9788780000
H   	    4.1235070000 	    0.6148650000 	    0.3460040000
H   	    1.8190820000 	    2.1491440000 	    0.1403370000
