11
tauto -281.482293331
N   	   -2.0647550000 	    0.0081400000 	   -0.0894250000
C   	   -0.6700470000 	    0.0242290000 	   -0.0132570000
N   	    0.0207500000 	   -1.1056830000 	    0.0074700000
N   	    1.3104340000 	   -0.7051370000 	    0.0094990000
H   	    2.0347930000 	   -1.4030160000 	    0.0171300000
C   	    1.4467010000 	    0.6363930000 	    0.0070290000
C   	    0.1762240000 	    1.1618720000 	   -0.0113040000
H   	   -2.4265230000 	   -0.9175310000 	    0.1051350000
H   	   -2.5001160000 	    0.6901120000 	    0.5176950000
H   	    2.4188500000 	    1.1104500000 	    0.0112670000
H   	   -0.1092760000 	    2.2037830000 	   -0.0388410000
