15
tauto -250.623432917
C   	   -0.6867910000 	   -1.2045120000 	    0.3038330000
C   	   -1.4596100000 	    0.0500620000 	   -0.0995860000
C   	   -0.5892610000 	    1.2861340000 	   -0.0565840000
N   	    0.6732280000 	    1.3457120000 	    0.0526340000
C   	    1.4356560000 	    0.1018820000 	    0.1319940000
C   	    0.7014400000 	   -1.1560420000 	   -0.3298740000
H   	   -1.2321540000 	   -2.1069640000 	    0.0066560000
H   	   -0.5840460000 	   -1.2377750000 	    1.3966780000
H   	   -2.3317590000 	    0.2116280000 	    0.5459490000
H   	   -1.8571060000 	   -0.0512290000 	   -1.1202350000
H   	   -1.1150570000 	    2.2445860000 	   -0.1268480000
H   	    1.7559800000 	   -0.0083220000 	    1.1775610000
H   	    2.3526800000 	    0.2495150000 	   -0.4497500000
H   	    1.2883060000 	   -2.0455780000 	   -0.0731630000
H   	    0.6019540000 	   -1.1409860000 	   -1.4239890000
