11
tauto -389.730933828
C   	    1.2591700000 	    1.0846400000 	    0.0001200000
N   	    2.0573260000 	    0.0556510000 	   -0.0000190000
N   	    1.2501780000 	   -1.0451100000 	   -0.0002090000
H   	    1.6567240000 	   -1.9651910000 	    0.0011240000
C   	   -0.0553310000 	   -0.6881160000 	   -0.0000630000
N   	   -1.2834100000 	   -1.1715050000 	    0.0000850000
C   	   -1.9947040000 	   -0.0054340000 	   -0.0000610000
N   	   -1.3217230000 	    1.1383460000 	    0.0000710000
N   	   -0.0470940000 	    0.6660000000 	   -0.0001210000
H   	    1.5790160000 	    2.1149350000 	    0.0001570000
H   	   -3.0774900000 	    0.0000550000 	    0.0000940000
