14
tauto -324.635990859
O   	   -2.3320850000 	    0.0044670000 	   -0.0675590000
C   	   -1.1134580000 	    0.0149680000 	   -0.0135340000
N   	   -0.3601670000 	   -1.1253970000 	   -0.1465520000
C   	    1.0279910000 	   -1.1766240000 	    0.2854960000
C   	    1.7809120000 	    0.0383640000 	   -0.2468350000
C   	    0.9973430000 	    1.2964500000 	    0.0165000000
C   	   -0.3299900000 	    1.2730060000 	    0.1432400000
H   	   -0.9066340000 	   -1.9749320000 	   -0.1114310000
H   	    1.4754520000 	   -2.1005650000 	   -0.0925080000
H   	    1.1004930000 	   -1.1958160000 	    1.3842030000
H   	    1.9461260000 	   -0.0635770000 	   -1.3285670000
H   	    2.7690760000 	    0.0927340000 	    0.2226650000
H   	    1.5378690000 	    2.2397600000 	    0.0711450000
H   	   -0.9213160000 	    2.1674550000 	    0.3116330000
