16
tauto -325.869003662
O   	    2.3617920000 	   -0.0374910000 	    0.0094900000
C   	    1.1424860000 	   -0.0098340000 	   -0.0186020000
N   	    0.4045580000 	   -1.1612210000 	   -0.0245250000
C   	   -1.0358590000 	   -1.2813490000 	    0.1475900000
C   	   -1.7444370000 	   -0.0170800000 	   -0.3216640000
C   	   -1.0899340000 	    1.2066330000 	    0.3138640000
C   	    0.3717690000 	    1.2973280000 	   -0.1233990000
H   	    0.9686090000 	   -1.9933000000 	    0.0834360000
H   	   -1.2811850000 	   -1.4659600000 	    1.2048660000
H   	   -1.3826600000 	   -2.1501020000 	   -0.4231180000
H   	   -2.8058790000 	   -0.0830260000 	   -0.0589260000
H   	   -1.6800120000 	    0.0558230000 	   -1.4152140000
H   	   -1.1493900000 	    1.1216810000 	    1.4076090000
H   	   -1.6227030000 	    2.1234280000 	    0.0386270000
H   	    0.9324000000 	    2.0419630000 	    0.4481170000
H   	    0.4304220000 	    1.6037900000 	   -1.1763720000
