15
tauto -412.967425311
C   	   -3.0632730000 	   -0.0575100000 	    0.0232530000
C   	   -1.5791850000 	    0.0925730000 	    0.0127300000
C   	   -0.8060770000 	    1.2016780000 	   -0.0179400000
C   	    0.5658990000 	    0.7450930000 	   -0.0451040000
N   	    1.8155060000 	    1.1505070000 	    0.0023510000
N   	    2.5826670000 	    0.0155310000 	    0.0274990000
C   	    1.8034830000 	   -1.0406780000 	    0.0293830000
N   	    0.5110400000 	   -0.6163870000 	   -0.0543470000
N   	   -0.7850110000 	   -1.0787370000 	    0.0873970000
H   	   -1.0177210000 	   -1.8170460000 	   -0.5697890000
H   	   -3.5369500000 	    0.9254620000 	   -0.0210960000
H   	   -3.3989930000 	   -0.5658840000 	    0.9329360000
H   	   -3.4141390000 	   -0.6396800000 	   -0.8373520000
H   	   -1.1459000000 	    2.2268490000 	   -0.0045190000
H   	    2.1192110000 	   -2.0730370000 	    0.0455850000
