12
tauto -248.452096515
C   	    0.9082990000 	    1.3073120000 	   -0.0000290000
C   	    0.5979400000 	   -0.1770420000 	   -0.0000650000
N   	   -0.7026740000 	   -0.5961920000 	   -0.0001230000
C   	   -1.9432240000 	    0.1464090000 	    0.0000610000
O   	    1.5061270000 	   -0.9932850000 	    0.0000790000
H   	    0.0481420000 	    1.9779540000 	   -0.0016640000
H   	    1.5226310000 	    1.5188430000 	   -0.8792060000
H   	    1.5197520000 	    1.5195000000 	    0.8810130000
H   	   -0.7692050000 	   -1.6051020000 	   -0.0000970000
H   	   -1.7487410000 	    1.2185610000 	    0.0003680000
H   	   -2.5404760000 	   -0.0853350000 	    0.8896910000
H   	   -2.5404960000 	   -0.0848650000 	   -0.8896770000
