21
tauto -462.179544459
O   	   -1.4832390000 	    2.2219780000 	   -0.2311460000
C   	   -1.3079070000 	    0.8808370000 	   -0.0454940000
C   	   -2.2984030000 	    0.0015190000 	    0.1449290000
C   	   -1.9958790000 	   -1.4551860000 	    0.3930070000
C   	   -0.7235600000 	   -1.8786880000 	   -0.3434770000
C   	    0.4083690000 	   -0.9006730000 	   -0.1258690000
C   	    0.1104600000 	    0.4681000000 	   -0.0295630000
C   	    1.1382370000 	    1.4010610000 	    0.1028660000
C   	    2.4633580000 	    0.9806410000 	    0.1487830000
C   	    2.7638360000 	   -0.3746410000 	    0.0623670000
C   	    1.7379410000 	   -1.3064920000 	   -0.0763360000
H   	   -2.4271700000 	    2.4165770000 	   -0.1662580000
H   	   -3.3337840000 	    0.3394260000 	    0.1752460000
H   	   -2.8345960000 	   -2.0776930000 	    0.0623110000
H   	   -1.8806600000 	   -1.6375670000 	    1.4726080000
H   	   -0.9398710000 	   -1.9207330000 	   -1.4211020000
H   	   -0.4173680000 	   -2.8865070000 	   -0.0409860000
H   	    0.8901420000 	    2.4556640000 	    0.1737360000
H   	    3.2601550000 	    1.7123110000 	    0.2549220000
H   	    3.7974960000 	   -0.7093700000 	    0.1021820000
H   	    1.9728550000 	   -2.3667910000 	   -0.1507630000
