12
tauto -211.316665016
C   	   -0.2794330000 	    1.1898500000 	   -0.1058930000
C   	   -1.2270350000 	   -0.0168330000 	    0.0822060000
N   	   -0.4153100000 	   -1.2334230000 	   -0.0479400000
C   	    0.8096220000 	   -0.9003310000 	   -0.0430260000
C   	    1.1175010000 	    0.5738240000 	    0.0852850000
H   	   -0.4870420000 	    2.0011420000 	    0.5968790000
H   	   -0.3790140000 	    1.5965910000 	   -1.1174590000
H   	   -2.0393150000 	   -0.0425020000 	   -0.6511310000
H   	   -1.6937470000 	   -0.0303320000 	    1.0752090000
H   	    1.5879830000 	   -1.6623770000 	   -0.1042420000
H   	    1.8531230000 	    0.9120490000 	   -0.6522440000
H   	    1.5412530000 	    0.7803270000 	    1.0771390000
