13
tauto -286.561336978
O   	   -2.1152480000 	   -0.0117230000 	   -0.0374000000
C   	   -0.9017140000 	    0.0026170000 	   -0.0090830000
N   	   -0.0846080000 	   -1.0929070000 	   -0.0853370000
C   	    1.3208720000 	   -0.8125840000 	    0.1389350000
C   	    1.4079060000 	    0.6894840000 	   -0.1909640000
C   	    0.0086650000 	    1.2192290000 	    0.1393320000
H   	   -0.4857670000 	   -2.0160840000 	   -0.0183500000
H   	    1.9570680000 	   -1.4203910000 	   -0.5122070000
H   	    1.6107070000 	   -1.0115670000 	    1.1810800000
H   	    1.6110760000 	    0.8150780000 	   -1.2594260000
H   	    2.2070840000 	    1.1866250000 	    0.3645930000
H   	   -0.3321820000 	    2.0320570000 	   -0.5054710000
H   	   -0.0681200000 	    1.5659430000 	    1.1770220000
