14
tauto -324.64032813
O   	    2.2966060000 	   -0.0488120000 	   -0.1341690000
C   	    1.0899420000 	   -0.0144760000 	    0.0093240000
N   	    0.3909380000 	    1.1715230000 	   -0.0334370000
C   	   -1.0032670000 	    1.2653400000 	    0.0893790000
C   	   -1.7885080000 	    0.1926550000 	    0.0014460000
C   	   -1.1766810000 	   -1.1573570000 	   -0.2673190000
C   	    0.2375210000 	   -1.2331910000 	    0.3185230000
H   	    0.9511960000 	    2.0032850000 	   -0.1485730000
H   	   -1.3806160000 	    2.2693540000 	    0.2560120000
H   	   -2.8632950000 	    0.3010020000 	    0.1014730000
H   	   -1.1414600000 	   -1.3364620000 	   -1.3521520000
H   	   -1.7921880000 	   -1.9581600000 	    0.1557680000
H   	    0.7858850000 	   -2.1124310000 	   -0.0271120000
H   	    0.1770140000 	   -1.2945710000 	    1.4138820000
