11
tauto -285.328058408
O   	   -2.0479310000 	    0.0111430000 	   -0.0012980000
C   	   -0.8363300000 	    0.0140790000 	    0.0003190000
N   	   -0.0220920000 	   -1.1014310000 	    0.0021960000
C   	    1.3349650000 	   -0.7440620000 	   -0.0007330000
C   	    1.4826060000 	    0.5824940000 	   -0.0010890000
C   	    0.1160920000 	    1.2132170000 	    0.0008250000
H   	   -0.3905840000 	   -2.0388710000 	   -0.0029700000
H   	    2.0910520000 	   -1.5194940000 	   -0.0011590000
H   	    2.4227600000 	    1.1173580000 	   -0.0019300000
H   	   -0.0857170000 	    1.8357690000 	   -0.8785360000
H   	   -0.0834180000 	    1.8317450000 	    0.8836800000
