14
tauto -527.889138969
O   	   -2.6915070000 	    1.0558150000 	   -0.0000180000
N   	   -2.1066950000 	   -0.0139950000 	    0.0000320000
C   	   -0.6579250000 	    0.0199650000 	    0.0000120000
C   	    0.0437160000 	    1.2633730000 	    0.0000100000
C   	    1.3966600000 	    1.2718730000 	   -0.0000040000
C   	    0.0272950000 	   -1.1534330000 	    0.0000110000
N   	    1.3761360000 	   -1.1285510000 	   -0.0000090000
C   	    2.1747810000 	    0.0391050000 	   -0.0000680000
O   	    3.3856890000 	   -0.0621840000 	    0.0000310000
O   	   -2.6509600000 	   -1.1079150000 	   -0.0000140000
H   	   -0.5343240000 	    2.1815130000 	    0.0000300000
H   	    1.9656000000 	    2.1946120000 	    0.0000120000
H   	   -0.4720920000 	   -2.1153480000 	    0.0000290000
H   	    1.9017940000 	   -1.9939840000 	    0.0000060000
