13
tauto -398.632212324
O   	   -2.3563770000 	   -0.8355960000 	   -0.0000080000
C   	   -1.1744140000 	   -0.1889610000 	   -0.0000010000
N   	   -0.0286330000 	   -0.9278090000 	    0.0000160000
C   	   -1.1145660000 	    1.1713930000 	   -0.0000050000
C   	    0.1761380000 	    1.7677730000 	    0.0000000000
C   	    1.3258760000 	    1.0386850000 	    0.0000070000
C   	    1.2877480000 	   -0.4061770000 	    0.0000030000
O   	    2.2270280000 	   -1.1855890000 	   -0.0000100000
H   	   -2.2319330000 	   -1.7929860000 	    0.0000470000
H   	   -0.0532870000 	   -1.9403820000 	   -0.0000270000
H   	   -2.0296270000 	    1.7487880000 	   -0.0000080000
H   	    0.2384570000 	    2.8535830000 	   -0.0000030000
H   	    2.3069280000 	    1.4988610000 	    0.0000050000
