11
tauto -285.328253838
O   	   -2.0724050000 	   -0.0078650000 	    0.0052260000
C   	   -0.8582490000 	    0.0222690000 	   -0.0023900000
N   	   -0.0132460000 	   -1.0619660000 	   -0.0122060000
C   	    1.3828820000 	   -0.7026530000 	    0.0038460000
C   	    1.3161360000 	    0.8031260000 	    0.0021640000
C   	    0.0494800000 	    1.2127590000 	   -0.0028800000
H   	   -0.3659480000 	   -2.0043210000 	    0.0188890000
H   	    1.9191300000 	   -1.0813350000 	   -0.8769450000
H   	    1.8987520000 	   -1.0785790000 	    0.8981740000
H   	    2.2077740000 	    1.4207610000 	    0.0036380000
H   	   -0.3292440000 	    2.2271430000 	   -0.0045680000
