12
tauto -323.431468269
O   	   -2.2827220000 	    0.0054680000 	    0.0000470000
C   	   -1.0625020000 	    0.0595710000 	   -0.0000610000
N   	   -0.3056190000 	   -1.1197800000 	   -0.0000600000
C   	    1.0576320000 	   -1.1847250000 	    0.0000010000
C   	    1.8015610000 	   -0.0523140000 	    0.0000360000
C   	    1.1112650000 	    1.2011380000 	   -0.0000150000
C   	   -0.2442910000 	    1.2630770000 	   -0.0000180000
H   	   -0.8584630000 	   -1.9668190000 	    0.0002110000
H   	    1.4852620000 	   -2.1821720000 	    0.0000120000
H   	    2.8836700000 	   -0.1041070000 	    0.0000350000
H   	    1.6901620000 	    2.1220080000 	    0.0000730000
H   	   -0.7815130000 	    2.2053220000 	    0.0000460000
