14
tauto -270.477719499
O   	    2.1310600000 	   -0.0829180000 	   -0.0392400000
C   	    0.7817830000 	    0.0574790000 	   -0.0006600000
C   	    0.0377680000 	    1.1654290000 	   -0.0262800000
C   	   -1.4284670000 	    0.8274150000 	    0.0960430000
C   	   -1.4588170000 	   -0.6981210000 	   -0.1659720000
C   	   -0.0323170000 	   -1.1997060000 	    0.1303420000
H   	    2.5292160000 	    0.7966150000 	   -0.0803570000
H   	    0.4212510000 	    2.1814630000 	   -0.0754860000
H   	   -2.0566060000 	    1.3739910000 	   -0.6174680000
H   	   -1.8094730000 	    1.0701260000 	    1.0987140000
H   	   -1.6880810000 	   -0.8759100000 	   -1.2221770000
H   	   -2.2209780000 	   -1.2142070000 	    0.4253890000
H   	    0.3061900000 	   -1.9785280000 	   -0.5615460000
H   	    0.0702970000 	   -1.6051750000 	    1.1460110000
