23
tauto -754.211156438
C   	   -3.4165140000 	   -0.8637470000 	    0.0002700000
N   	   -2.0152120000 	   -0.4478390000 	    0.0002560000
C   	   -1.0158030000 	   -1.4512850000 	    0.0002520000
C   	    0.3514090000 	   -0.9296410000 	    0.0000250000
N   	    1.3957570000 	   -1.8176410000 	   -0.0002760000
C   	    2.6067720000 	   -1.3801320000 	   -0.0003700000
C   	    2.9704490000 	    0.0435690000 	   -0.0003490000
N   	    1.8465170000 	    0.8861870000 	    0.0000810000
O   	    4.0912970000 	    0.5084710000 	    0.0002640000
C   	    0.5641900000 	    0.4290380000 	    0.0001780000
N   	   -0.4601300000 	    1.3376740000 	    0.0000310000
C   	   -0.2030350000 	    2.7721060000 	    0.0003540000
O   	   -1.3102190000 	   -2.6250560000 	    0.0001120000
C   	   -1.8017830000 	    0.9130320000 	   -0.0002330000
O   	   -2.7121520000 	    1.7171100000 	   -0.0007810000
H   	   -3.4290860000 	   -1.9517750000 	    0.0068920000
H   	   -3.9179930000 	   -0.4796080000 	   -0.8904910000
H   	   -3.9207010000 	   -0.4681770000 	    0.8843830000
H   	    3.4308870000 	   -2.0899730000 	   -0.0004140000
H   	    2.0567650000 	    1.8760480000 	    0.0004210000
H   	    0.3493470000 	    3.0679810000 	   -0.8979500000
H   	    0.3490920000 	    3.0677350000 	    0.8988450000
H   	   -1.1723630000 	    3.2672730000 	    0.0001330000
