17
tauto -493.075092287
O   	   -3.3029650000 	   -0.6722380000 	    0.0005450000
C   	   -2.1619780000 	   -0.2483320000 	    0.0001100000
N   	   -1.0569490000 	   -1.0712010000 	   -0.0004970000
C   	    0.2488840000 	   -0.6088310000 	   -0.0002260000
C   	    1.3436740000 	   -1.4796820000 	   -0.0002000000
C   	    2.6257130000 	   -0.9585120000 	    0.0001560000
C   	    2.8384120000 	    0.4258080000 	    0.0003300000
C   	    1.7549130000 	    1.2845480000 	    0.0000740000
C   	    0.4485920000 	    0.7805610000 	   -0.0001520000
N   	   -0.6237570000 	    1.6741810000 	   -0.0002220000
C   	   -1.8127860000 	    1.1961590000 	   -0.0000030000
H   	   -1.2449690000 	   -2.0658770000 	    0.0003010000
H   	    1.1789790000 	   -2.5547930000 	   -0.0004720000
H   	    3.4749060000 	   -1.6366110000 	    0.0002770000
H   	    3.8498960000 	    0.8208650000 	    0.0006420000
H   	    1.8783750000 	    2.3636190000 	    0.0001200000
H   	   -2.6610600000 	    1.8795280000 	   -0.0007240000
