11
tauto -339.443913491
O   	   -2.2604500000 	    0.0189020000 	   -0.0002600000
C   	   -1.0422460000 	    0.0670600000 	   -0.0001320000
N   	   -0.2823600000 	   -1.1009790000 	   -0.0000290000
N   	    1.0478540000 	   -1.2350760000 	    0.0002100000
C   	    1.7387760000 	   -0.1376040000 	    0.0001530000
C   	    1.1314430000 	    1.1625730000 	    0.0001440000
C   	   -0.2150780000 	    1.2689300000 	   -0.0000270000
H   	   -0.8011690000 	   -1.9702390000 	   -0.0000960000
H   	    2.8171730000 	   -0.2601300000 	    0.0001560000
H   	    1.7665710000 	    2.0444560000 	    0.0001020000
H   	   -0.7348040000 	    2.2213270000 	   -0.0001770000
