18
tauto -477.045577647
O   	   -3.2986530000 	   -0.7627340000 	    0.0015930000
C   	   -2.1890930000 	   -0.2558230000 	    0.0000130000
N   	   -1.0459280000 	   -1.0448020000 	   -0.0015890000
C   	    0.2585190000 	   -0.5888350000 	   -0.0005730000
C   	    1.3393970000 	   -1.4811840000 	   -0.0002940000
C   	    2.6316130000 	   -0.9896650000 	    0.0003710000
C   	    2.8746300000 	    0.3900960000 	    0.0006240000
C   	    1.8082140000 	    1.2688460000 	    0.0003470000
C   	    0.4866760000 	    0.7980680000 	   -0.0002180000
C   	   -0.6665450000 	    1.6728780000 	   -0.0003860000
C   	   -1.9215610000 	    1.1873840000 	   -0.0004730000
H   	   -1.2248570000 	   -2.0406650000 	    0.0006130000
H   	    1.1531150000 	   -2.5527930000 	   -0.0004720000
H   	    3.4658780000 	   -1.6862070000 	    0.0006870000
H   	    3.8939860000 	    0.7645940000 	    0.0009870000
H   	    1.9800120000 	    2.3432860000 	    0.0006230000
H   	   -0.4926270000 	    2.7474630000 	   -0.0002170000
H   	   -2.7958950000 	    1.8292240000 	   -0.0002970000
