14
tauto -361.76015281
C   	    2.3369410000 	    0.5669260000 	    0.0012410000
C   	    1.1479250000 	   -0.3467880000 	   -0.0005560000
C   	   -0.2290080000 	    0.3501070000 	   -0.0004640000
N   	   -1.2493070000 	   -0.5285660000 	    0.0008790000
C   	   -2.6349460000 	   -0.1191960000 	    0.0006770000
O   	   -0.3211570000 	    1.5678210000 	   -0.0015860000
O   	    1.2112220000 	   -1.5580580000 	   -0.0012820000
H   	    2.3043420000 	    1.2122970000 	    0.8848790000
H   	    2.2929530000 	    1.2331320000 	   -0.8660160000
H   	    3.2557490000 	   -0.0210460000 	   -0.0104340000
H   	   -0.9917030000 	   -1.5060940000 	    0.0014250000
H   	   -2.6553790000 	    0.9721450000 	   -0.0041330000
H   	   -3.1525490000 	   -0.4834290000 	    0.8942640000
H   	   -3.1542490000 	   -0.4914350000 	   -0.8885820000
