16
tauto -512.93399702
O   	   -1.7475860000 	    1.9583720000 	    0.0000350000
C   	   -1.1821910000 	    0.8949110000 	   -0.0000730000
C   	    0.2574640000 	    0.5754760000 	   -0.0000560000
C   	    1.3755390000 	    1.3949130000 	    0.0000010000
C   	    2.6352770000 	    0.8002700000 	    0.0000390000
C   	    2.7485640000 	   -0.5909080000 	    0.0000410000
C   	    1.6287080000 	   -1.4254950000 	    0.0000090000
C   	    0.3827580000 	   -0.8201130000 	   -0.0000500000
N   	   -0.8823490000 	   -1.4234530000 	   -0.0000740000
C   	   -1.9030480000 	   -0.4927330000 	   -0.0001300000
O   	   -3.0883290000 	   -0.7053120000 	    0.0001450000
H   	    1.2532600000 	    2.4748300000 	    0.0000090000
H   	    3.5305050000 	    1.4146980000 	    0.0000740000
H   	    3.7368480000 	   -1.0436070000 	    0.0000850000
H   	    1.7362490000 	   -2.5065240000 	    0.0000300000
H   	   -1.0515290000 	   -2.4176390000 	    0.0001870000
