19
tauto -552.193887205
O   	   -3.2288520000 	   -0.0955360000 	   -0.0003110000
N   	   -1.8943190000 	    0.2344170000 	   -0.0009250000
C   	   -1.5656460000 	    1.5602980000 	    0.0002100000
C   	   -0.2675450000 	    1.9314040000 	    0.0003530000
C   	    0.7588880000 	    0.9198780000 	    0.0000750000
C   	    0.3895460000 	   -0.4406910000 	   -0.0000590000
C   	    1.3655820000 	   -1.4502480000 	   -0.0001050000
C   	    2.7019750000 	   -1.1149000000 	   -0.0001420000
C   	    3.0825650000 	    0.2388470000 	   -0.0000990000
C   	    2.1326300000 	    1.2375270000 	   -0.0000010000
C   	   -1.0185570000 	   -0.8266880000 	    0.0001060000
O   	   -1.4834730000 	   -1.9695760000 	    0.0006880000
H   	   -3.1675420000 	   -1.0793040000 	    0.0004220000
H   	   -2.4119050000 	    2.2367880000 	    0.0005630000
H   	   -0.0038500000 	    2.9831490000 	    0.0009330000
H   	    1.0337760000 	   -2.4844700000 	   -0.0001270000
H   	    3.4614400000 	   -1.8915520000 	   -0.0002330000
H   	    4.1379180000 	    0.4997680000 	   -0.0001340000
H   	    2.4323690000 	    2.2830330000 	    0.0000150000
