19
tauto -552.175663945
O   	   -2.8722810000 	   -1.2677230000 	   -0.0004740000
N   	   -1.6725620000 	   -0.6296640000 	   -0.0002690000
C   	   -0.5575540000 	   -1.3418460000 	    0.0001520000
C   	    0.6718930000 	   -0.6913750000 	    0.0000710000
C   	    1.9054580000 	   -1.4141190000 	    0.0002480000
C   	    3.0899020000 	   -0.7464410000 	    0.0001140000
C   	    3.0999510000 	    0.6835480000 	   -0.0001370000
C   	    1.9432710000 	    1.4007400000 	   -0.0002310000
C   	    0.6688740000 	    0.7409450000 	   -0.0000750000
C   	   -0.5353850000 	    1.4439380000 	   -0.0000260000
C   	   -1.7828580000 	    0.7922370000 	    0.0000540000
O   	   -2.9445250000 	    1.2258750000 	    0.0004920000
H   	   -3.4743470000 	   -0.4717250000 	    0.0000910000
H   	   -0.6801830000 	   -2.4201050000 	    0.0006030000
H   	    1.8754640000 	   -2.5016690000 	    0.0004160000
H   	    4.0303760000 	   -1.2893750000 	    0.0001940000
H   	    4.0548630000 	    1.2031390000 	   -0.0002750000
H   	    1.9627370000 	    2.4876920000 	   -0.0004100000
H   	   -0.5478420000 	    2.5287120000 	    0.0001060000
