18
tauto -568.304594152
O   	   -2.8709170000 	   -1.3990460000 	    0.0001050000
C   	   -1.8402020000 	   -0.7674340000 	   -0.0000350000
N   	   -0.6012730000 	   -1.3610080000 	   -0.0003230000
C   	    0.6292890000 	   -0.6991000000 	   -0.0001160000
C   	    1.8369150000 	   -1.3921480000 	    0.0000630000
C   	    3.0389560000 	   -0.6964960000 	    0.0002490000
C   	    3.0389560000 	    0.6964960000 	    0.0001770000
C   	    1.8369140000 	    1.3921480000 	   -0.0000820000
C   	    0.6292900000 	    0.6990990000 	   -0.0001820000
N   	   -0.6012740000 	    1.3610100000 	   -0.0004990000
C   	   -1.8402040000 	    0.7674340000 	    0.0000730000
O   	   -2.8709170000 	    1.3990450000 	    0.0004290000
H   	   -0.6168870000 	   -2.3730020000 	   -0.0000460000
H   	    1.8268750000 	   -2.4797460000 	    0.0000630000
H   	    3.9765210000 	   -1.2443110000 	    0.0004450000
H   	    3.9765200000 	    1.2443120000 	    0.0003130000
H   	    1.8268730000 	    2.4797460000 	   -0.0001970000
H   	   -0.6168870000 	    2.3730040000 	    0.0000200000
