26
tauto -760.162630767
C   	    3.9856110000 	   -1.4672020000 	   -0.9186990000
C   	    3.7689570000 	   -0.2105810000 	   -0.0973500000
O   	    2.4429080000 	    0.3152410000 	   -0.2868570000
C   	    1.4775190000 	   -0.2384700000 	    0.4443970000
C   	    0.1586590000 	    0.4281080000 	    0.2096460000
C   	   -1.0102020000 	   -0.3019440000 	    0.1035990000
C   	   -1.0930420000 	   -1.7429130000 	    0.2082110000
C   	   -2.2812510000 	   -2.3751910000 	    0.0581170000
C   	   -3.5039020000 	   -1.6594050000 	   -0.2073770000
C   	   -3.4867650000 	   -0.3135240000 	   -0.3119430000
C   	   -2.2460870000 	    0.4068510000 	   -0.1593090000
N   	   -2.2978380000 	    1.7163930000 	   -0.2752480000
N   	   -1.1669300000 	    2.3669130000 	   -0.1314950000
C   	    0.1251870000 	    1.8769120000 	    0.1266450000
O   	    1.0350080000 	    2.6753730000 	    0.2718040000
O   	    1.6408180000 	   -1.1822880000 	    1.1891370000
H   	    5.0227760000 	   -1.8035100000 	   -0.8169050000
H   	    3.7876600000 	   -1.2753250000 	   -1.9777380000
H   	    3.3276650000 	   -2.2681670000 	   -0.5711900000
H   	    4.4255350000 	    0.6004700000 	   -0.4188350000
H   	    3.9228380000 	   -0.4011610000 	    0.9678580000
H   	   -0.1887220000 	   -2.2962420000 	    0.4291240000
H   	   -2.3206050000 	   -3.4580460000 	    0.1445220000
H   	   -4.4317140000 	   -2.2124970000 	   -0.3194730000
H   	   -4.3789390000 	    0.2726630000 	   -0.5099930000
H   	   -1.2310900000 	    3.3762110000 	   -0.2084540000
