16
tauto -417.124082041
C   	   -3.0858640000 	    0.1233410000 	   -0.0000550000
N   	   -1.6979430000 	    0.5239710000 	    0.0000240000
C   	   -0.6839950000 	   -0.3538680000 	    0.0000290000
C   	    0.6839970000 	    0.3539100000 	    0.0000480000
N   	    1.6979110000 	   -0.5239660000 	    0.0000970000
C   	    3.0858540000 	   -0.1234020000 	   -0.0000750000
O   	    0.7738440000 	    1.5752410000 	    0.0000050000
O   	   -0.7737990000 	   -1.5752020000 	   -0.0000040000
H   	   -3.6011800000 	    0.4956930000 	   -0.8914460000
H   	   -3.6012640000 	    0.4955360000 	    0.8913560000
H   	   -3.1143700000 	   -0.9678640000 	   -0.0001370000
H   	   -1.4254810000 	    1.4986580000 	    0.0000880000
H   	    1.4254260000 	   -1.4986450000 	    0.0000430000
H   	    3.1144100000 	    0.9678020000 	   -0.0006600000
H   	    3.6011770000 	   -0.4961740000 	   -0.8912870000
H   	    3.6011960000 	   -0.4952390000 	    0.8915140000
