19
tauto -589.218330199
C   	   -3.5847070000 	    1.0918310000 	    0.3581380000
C   	   -2.8329680000 	    0.0449230000 	    0.0079480000
C   	   -1.3483650000 	    0.0412650000 	   -0.0080690000
C   	   -0.6251410000 	    1.2312170000 	   -0.1425610000
C   	    0.7612020000 	    1.2225830000 	   -0.1328260000
C   	   -0.6575070000 	   -1.1686290000 	    0.1112880000
C   	    0.7302330000 	   -1.1925540000 	    0.1209970000
C   	    1.4165450000 	    0.0065890000 	    0.0023100000
N   	    2.8867310000 	   -0.0104050000 	    0.0097780000
O   	    3.4646900000 	    1.0564590000 	   -0.1066200000
O   	    3.4389700000 	   -1.0900570000 	    0.1305620000
O   	   -3.3418890000 	   -1.1668640000 	   -0.3552540000
H   	   -3.1376730000 	    2.0206020000 	    0.6894610000
H   	   -4.6703170000 	    1.0403000000 	    0.3456000000
H   	   -1.1498320000 	    2.1720990000 	   -0.2781930000
H   	    1.3375950000 	    2.1343090000 	   -0.2386510000
H   	   -1.2169430000 	   -2.0936540000 	    0.1987720000
H   	    1.2828480000 	   -2.1198700000 	    0.2189320000
H   	   -4.3027010000 	   -1.1406100000 	   -0.2572180000
