12
tauto -414.684332881
O   	    1.7118500000 	    1.4031970000 	   -0.0000190000
C   	    0.6826620000 	    0.7669480000 	    0.0001070000
N   	   -0.5609020000 	    1.3562190000 	   -0.0000750000
C   	   -1.7729870000 	    0.6672410000 	    0.0000530000
C   	   -1.7729840000 	   -0.6672440000 	    0.0000730000
N   	   -0.5608980000 	   -1.3562200000 	   -0.0001600000
C   	    0.6826650000 	   -0.7669460000 	   -0.0002280000
O   	    1.7118540000 	   -1.4031920000 	    0.0001910000
H   	   -0.5503970000 	    2.3670560000 	   -0.0001430000
H   	   -2.6761920000 	    1.2619930000 	    0.0002670000
H   	   -2.6761880000 	   -1.2620000000 	    0.0003440000
H   	   -0.5503900000 	   -2.3670570000 	   -0.0002260000
