17
tauto -675.607219309
O   	   -3.7088270000 	   -0.9426840000 	    0.0001590000
C   	   -2.6235090000 	   -0.4029160000 	   -0.0001320000
N   	   -1.4410380000 	   -1.1633610000 	   -0.0000500000
C   	   -0.2008960000 	   -0.6068380000 	   -0.0000620000
N   	    0.8919270000 	   -1.4310070000 	   -0.0000560000
C   	    2.2079420000 	   -0.9584370000 	   -0.0000120000
N   	    2.2975230000 	    0.4140710000 	   -0.0000400000
C   	    1.2570110000 	    1.3670000000 	   -0.0001600000
O   	    1.5126180000 	    2.5469350000 	    0.0001370000
O   	    3.1523380000 	   -1.7129150000 	    0.0001270000
C   	   -0.0808380000 	    0.7618040000 	   -0.0000830000
N   	   -1.1873100000 	    1.5736360000 	   -0.0000110000
C   	   -2.3612540000 	    1.0461330000 	    0.0000280000
H   	   -1.5728220000 	   -2.1679910000 	   -0.0000300000
H   	    0.8042030000 	   -2.4377710000 	    0.0000300000
H   	    3.2378230000 	    0.7894480000 	    0.0000810000
H   	   -3.2366730000 	    1.6917840000 	    0.0001590000
