8
tauto -225.203145746
N   	   -1.1565400000 	   -0.5973320000 	    0.0000010000
C   	    0.0000000000 	    0.1416970000 	   -0.0000110000
N   	    1.1565400000 	   -0.5973310000 	   -0.0000010000
O   	   -0.0000010000 	    1.3609420000 	    0.0000030000
H   	   -1.1842450000 	   -1.6020930000 	    0.0000040000
H   	   -2.0219360000 	   -0.0854500000 	    0.0000070000
H   	    1.1842470000 	   -1.6020920000 	    0.0000100000
H   	    2.0219360000 	   -0.0854490000 	    0.0000130000
