16
tauto -512.964677471
O   	   -1.6681460000 	    2.2975150000 	    0.0000180000
C   	   -1.2423010000 	    1.1687110000 	   -0.0000620000
C   	    0.1778510000 	    0.6949330000 	   -0.0000180000
C   	    0.1777920000 	   -0.6950670000 	   -0.0000090000
C   	    1.3547670000 	   -1.4202810000 	    0.0000270000
C   	    2.5503610000 	   -0.6983960000 	    0.0000180000
C   	    2.5503990000 	    0.6982710000 	    0.0000030000
C   	    1.3548090000 	    1.4201610000 	   -0.0000070000
N   	   -2.0078240000 	    0.0001110000 	    0.0000880000
C   	   -1.2424380000 	   -1.1686510000 	   -0.0000980000
O   	   -1.6685200000 	   -2.2973500000 	    0.0000020000
H   	    1.3407180000 	   -2.5064400000 	    0.0000290000
H   	    3.4983130000 	   -1.2296980000 	    0.0000240000
H   	    3.4983860000 	    1.2295050000 	   -0.0000060000
H   	    1.3406320000 	    2.5063180000 	   -0.0000200000
H   	   -3.0173970000 	    0.0001270000 	    0.0000710000
