11
tauto -430.73800181
O   	   -2.2648970000 	   -0.9194740000 	    0.0001100000
C   	   -1.0795470000 	   -0.3197730000 	   -0.0000030000
N   	   -1.1511020000 	    1.0582010000 	   -0.0004020000
C   	    0.0089840000 	    1.6360300000 	   -0.0000800000
N   	    1.1646240000 	    0.9563940000 	    0.0005110000
N   	   -0.0282920000 	   -1.0785220000 	    0.0002280000
C   	    1.2039140000 	   -0.4731300000 	    0.0000530000
O   	    2.2785100000 	   -1.0232460000 	   -0.0003810000
H   	   -2.9347630000 	   -0.2183310000 	   -0.0001400000
H   	    0.0688740000 	    2.7228830000 	   -0.0002480000
H   	    2.0602670000 	    1.4259380000 	    0.0003800000
