10
tauto -359.34045245
O   	   -2.2897670000 	    0.5604060000 	   -0.0000990000
C   	   -1.1532330000 	    0.1587890000 	    0.0000250000
C   	   -0.6652840000 	   -1.2654190000 	    0.0000090000
C   	    0.6652810000 	   -1.2654080000 	    0.0000250000
N   	    0.0000080000 	    0.9385070000 	    0.0001580000
C   	    1.1532180000 	    0.1588110000 	    0.0000040000
O   	    2.2897730000 	    0.5603910000 	   -0.0000970000
H   	   -1.3529370000 	   -2.1019380000 	   -0.0000070000
H   	    1.3529440000 	   -2.1019190000 	    0.0000230000
H   	   -0.0000080000 	    1.9472900000 	    0.0000570000
