12
tauto -414.716692445
O   	    2.3080860000 	   -1.0054770000 	   -0.0000460000
C   	    1.2865690000 	   -0.3506480000 	    0.0000200000
C   	    1.2006470000 	    1.1094720000 	    0.0001840000
C   	   -0.0024660000 	    1.7055340000 	    0.0000380000
N   	   -1.1727270000 	    0.9838230000 	   -0.0004280000
N   	    0.0339190000 	   -0.9856960000 	   -0.0000730000
C   	   -1.2183510000 	   -0.4031980000 	   -0.0000020000
O   	   -2.2578600000 	   -1.0261620000 	    0.0002020000
H   	    2.1236250000 	    1.6736410000 	    0.0003590000
H   	   -0.1246680000 	    2.7838120000 	    0.0000930000
H   	   -2.0726680000 	    1.4397400000 	    0.0005930000
H   	    0.0451580000 	   -1.9979310000 	   -0.0002220000
