11
tauto -430.705806734
O   	   -2.2338410000 	   -0.9850680000 	   -0.0000940000
C   	   -1.0464400000 	   -0.3652640000 	   -0.0000050000
N   	   -1.0520550000 	    1.0149620000 	    0.0000950000
C   	    0.1801190000 	    1.6422820000 	   -0.0000110000
N   	    1.2925420000 	    1.0281500000 	    0.0000050000
N   	    0.0191590000 	   -1.0609080000 	   -0.0000130000
C   	    1.2657250000 	   -0.4033270000 	   -0.0000040000
O   	    2.2977740000 	   -1.0216310000 	    0.0000130000
H   	   -2.9689030000 	   -0.3588680000 	    0.0007920000
H   	   -1.8985620000 	    1.5634830000 	   -0.0005780000
H   	    0.1420610000 	    2.7314050000 	   -0.0000600000
