15
tauto -399.889997702
O   	   -2.2605880000 	   -1.1201350000 	   -0.0393660000
C   	   -1.2555460000 	   -0.4483490000 	    0.0248210000
C   	   -1.2522000000 	    1.0542440000 	    0.2110980000
C   	   -0.0000940000 	    1.7122050000 	   -0.3636360000
C   	    1.2523140000 	    1.0543180000 	    0.2105190000
N   	   -0.0000080000 	   -1.0466430000 	   -0.0516180000
C   	    1.2555130000 	   -0.4483890000 	    0.0250160000
O   	    2.2605600000 	   -1.1201840000 	   -0.0391070000
H   	   -1.3208130000 	    1.2455470000 	    1.2909610000
H   	   -2.1723760000 	    1.4349610000 	   -0.2386640000
H   	   -0.0000710000 	    2.7836090000 	   -0.1407430000
H   	   -0.0003590000 	    1.6144610000 	   -1.4562870000
H   	    1.3217640000 	    1.2460820000 	    1.2902420000
H   	    2.1722190000 	    1.4347550000 	   -0.2400430000
H   	   -0.0000050000 	   -2.0545360000 	   -0.1632670000
