12
tauto -506.015855687
O   	   -0.7121640000 	    2.5407710000 	    0.0002070000
C   	   -0.3864170000 	    1.3791080000 	    0.0000880000
N   	   -1.2948470000 	    0.3311250000 	   -0.0010330000
C   	   -1.0011020000 	   -1.0242850000 	    0.0000710000
N   	    0.3607060000 	   -1.2871800000 	    0.0005970000
O   	   -1.8446610000 	   -1.8868480000 	    0.0002130000
N   	    0.9343940000 	    0.9559520000 	    0.0005960000
C   	    1.3876050000 	   -0.3548750000 	   -0.0001830000
O   	    2.5565210000 	   -0.6537850000 	   -0.0005400000
H   	   -2.2742690000 	    0.5816330000 	   -0.0008080000
H   	    0.6334130000 	   -2.2605950000 	    0.0004010000
H   	    1.6410020000 	    1.6788920000 	    0.0003930000
