26
tauto -631.789875096
O   	    0.2260430000 	    1.7950540000 	   -0.2999250000
C   	    0.4940730000 	    0.4674990000 	   -0.1013340000
C   	    1.9316850000 	    0.1083060000 	   -0.0381020000
C   	    2.4118070000 	   -1.1285270000 	   -0.4745050000
C   	    3.7728140000 	   -1.3905430000 	   -0.3883700000
N   	    4.6743640000 	   -0.5242270000 	    0.0809930000
C   	    4.2109790000 	    0.6566690000 	    0.4897750000
C   	    2.8695560000 	    1.0214860000 	    0.4504070000
C   	   -0.4854700000 	   -0.4286050000 	    0.0965140000
C   	   -1.9433260000 	   -0.2467810000 	    0.0672760000
C   	   -2.5839270000 	    0.9795110000 	   -0.1663730000
C   	   -3.9719180000 	    1.0572600000 	   -0.1863760000
C   	   -4.7514770000 	   -0.0757240000 	    0.0276830000
C   	   -4.1293730000 	   -1.2980590000 	    0.2640560000
C   	   -2.7432800000 	   -1.3785980000 	    0.2835810000
H   	    0.9811950000 	    2.2001140000 	   -0.7466430000
H   	    1.7368620000 	   -1.8669360000 	   -0.8972510000
H   	    4.1650570000 	   -2.3480310000 	   -0.7275790000
H   	    4.9529550000 	    1.3535240000 	    0.8768530000
H   	    2.5593680000 	    1.9913660000 	    0.8309610000
H   	   -0.1530850000 	   -1.4365680000 	    0.3329860000
H   	   -1.9907740000 	    1.8710400000 	   -0.3299120000
H   	   -4.4490080000 	    2.0171940000 	   -0.3687430000
H   	   -5.8361830000 	   -0.0059830000 	    0.0122690000
H   	   -4.7243310000 	   -2.1918310000 	    0.4347880000
H   	   -2.2638030000 	   -2.3380970000 	    0.4693360000
