15
tauto -562.310596356
O   	   -0.1818710000 	    2.6462170000 	    0.0000280000
C   	   -0.2899210000 	    1.4353280000 	    0.0000250000
C   	    0.7699350000 	    0.4582810000 	   -0.0000230000
C   	    0.5493790000 	   -0.8937800000 	   -0.0000520000
N   	   -0.7278200000 	   -1.4051680000 	   -0.0001210000
N   	    1.7070130000 	   -1.6009090000 	   -0.0000620000
C   	    2.6430620000 	   -0.6664800000 	    0.0001670000
N   	    2.1419680000 	    0.5878650000 	   -0.0000570000
H   	    2.6508960000 	    1.4588720000 	   -0.0000850000
N   	   -1.5346990000 	    0.7898820000 	   -0.0000930000
C   	   -1.8341090000 	   -0.5763250000 	    0.0000760000
O   	   -2.9744050000 	   -0.9875820000 	    0.0000910000
H   	   -0.8952610000 	   -2.4005070000 	    0.0000620000
H   	    3.7070280000 	   -0.8637880000 	    0.0002540000
H   	   -2.3477570000 	    1.3925130000 	   -0.0000110000
