27
tauto -702.504877098
C   	   -2.4270910000 	   -0.7800260000 	   -1.2457950000
C   	   -1.5979020000 	   -0.5062700000 	    0.0281610000
C   	   -2.1799310000 	   -1.2861670000 	    1.2115330000
C   	   -1.7010480000 	    0.9819430000 	    0.3125450000
N   	   -0.5973310000 	    1.7415150000 	   -0.0204920000
C   	    0.6498830000 	    1.3053120000 	   -0.4408080000
N   	    0.7929780000 	   -0.0711700000 	   -0.5897150000
C   	    2.1405950000 	   -0.5682050000 	   -0.8720890000
C   	    2.8987730000 	   -0.9175270000 	    0.4076120000
N   	    2.8136760000 	    0.1755740000 	    1.3676060000
O   	    1.5370640000 	    2.0956790000 	   -0.6776780000
O   	   -2.7031160000 	    1.4999300000 	    0.7544430000
C   	   -0.1820030000 	   -1.0005620000 	   -0.2536270000
O   	    0.0711230000 	   -2.1885460000 	   -0.2567230000
H   	   -3.4611360000 	   -0.4665400000 	   -1.0776190000
H   	   -2.4022600000 	   -1.8504040000 	   -1.4682270000
H   	   -2.0317530000 	   -0.2335130000 	   -2.1094180000
H   	   -3.2106360000 	   -0.9678440000 	    1.3827390000
H   	   -1.6060640000 	   -1.1046360000 	    2.1260140000
H   	   -2.1505520000 	   -2.3555220000 	    0.9927370000
H   	   -0.6689940000 	    2.7406780000 	    0.1257900000
H   	    2.6532350000 	    0.2187160000 	   -1.4273860000
H   	    2.0459930000 	   -1.4525030000 	   -1.5048420000
H   	    3.9255980000 	   -1.1962860000 	    0.1144090000
H   	    2.4374960000 	   -1.8029340000 	    0.8568330000
H   	    3.2805990000 	    1.0032780000 	    1.0075870000
H   	    3.2749780000 	   -0.0814200000 	    2.2340570000
