26
tauto -631.789225036
O   	    0.2283720000 	    1.7981370000 	   -0.3251280000
C   	    0.5007400000 	    0.4749940000 	   -0.0917420000
C   	    1.9393800000 	    0.1259370000 	   -0.0315330000
C   	    2.4215830000 	   -1.0995450000 	   -0.5057230000
N   	    3.6999160000 	   -1.4655160000 	   -0.4678250000
C   	    4.5737830000 	   -0.5950510000 	    0.0425690000
C   	    4.2144410000 	    0.6593260000 	    0.5238260000
C   	    2.8755770000 	    1.0244910000 	    0.4851190000
C   	   -0.4766150000 	   -0.4173110000 	    0.1314320000
C   	   -1.9354800000 	   -0.2421770000 	    0.0853160000
C   	   -2.7327040000 	   -1.3775630000 	    0.2926140000
C   	   -4.1189610000 	   -1.3036840000 	    0.2573750000
C   	   -4.7446540000 	   -0.0844140000 	    0.0149750000
C   	   -3.9679530000 	    1.0523630000 	   -0.1889340000
C   	   -2.5798490000 	    0.9811150000 	   -0.1535790000
H   	    0.9668590000 	    2.1828050000 	   -0.8154320000
H   	    1.7298530000 	   -1.8124890000 	   -0.9526150000
H   	    5.6134000000 	   -0.9176580000 	    0.0625470000
H   	    4.9671320000 	    1.3295260000 	    0.9282980000
H   	    2.5507770000 	    1.9864270000 	    0.8765310000
H   	   -0.1418760000 	   -1.4167350000 	    0.3993310000
H   	   -2.2508000000 	   -2.3349940000 	    0.4826160000
H   	   -4.7112170000 	   -2.2007140000 	    0.4205210000
H   	   -5.8294660000 	   -0.0199120000 	   -0.0126350000
H   	   -4.4474560000 	    2.0104670000 	   -0.3749710000
H   	   -1.9893090000 	    1.8759110000 	   -0.3086840000
