15
tauto -399.803185054
C   	   -0.1513790000 	    2.1558860000 	    0.0018400000
C   	   -0.0492580000 	    0.6674790000 	    0.0002630000
C   	    1.0164590000 	   -0.1526760000 	    0.0028620000
C   	    2.4814730000 	    0.1282430000 	   -0.0122200000
N   	    0.6056330000 	   -1.4840880000 	    0.1202010000
O   	   -0.7905180000 	   -1.5000370000 	    0.0013110000
C   	   -1.2349380000 	   -0.1872790000 	   -0.0085450000
O   	   -2.4090350000 	    0.0752060000 	   -0.0158030000
H   	    0.8342600000 	    2.6303640000 	   -0.0025110000
H   	   -0.6965510000 	    2.5037850000 	    0.8856380000
H   	   -0.7062620000 	    2.5044200000 	   -0.8753570000
H   	    2.6648780000 	    1.1984680000 	   -0.1275810000
H   	    2.9748890000 	   -0.3928820000 	   -0.8409250000
H   	    2.9457100000 	   -0.2095970000 	    0.9196250000
H   	    0.9659320000 	   -2.1172130000 	   -0.5895580000
