22
tauto -587.691715076
C   	    0.9428480000 	    2.1513490000 	    0.8507730000
N   	    1.2899200000 	    1.0657130000 	   -0.0640220000
C   	    0.5757560000 	   -0.1186630000 	   -0.0887080000
C   	   -0.8993490000 	   -0.1367080000 	   -0.0673370000
C   	   -1.5442080000 	   -1.2145950000 	    0.5424990000
C   	   -2.9320880000 	   -1.2739330000 	    0.5573620000
C   	   -3.6805670000 	   -0.2660860000 	   -0.0460570000
C   	   -3.0401210000 	    0.7990760000 	   -0.6734540000
C   	   -1.6515710000 	    0.8651320000 	   -0.6862010000
N   	    1.3015590000 	   -1.1895690000 	   -0.1609610000
N   	    2.6208050000 	    0.6433570000 	    0.0497750000
C   	    2.6370860000 	   -0.7547530000 	   -0.1574880000
O   	    3.6410290000 	   -1.4052470000 	   -0.3142540000
H   	   -0.1325860000 	    2.3250660000 	    0.8128120000
H   	    1.4570300000 	    3.0625980000 	    0.5352200000
H   	    1.2430650000 	    1.9039850000 	    1.8752990000
H   	   -0.9418520000 	   -1.9984920000 	    0.9923340000
H   	   -3.4313590000 	   -2.1112360000 	    1.0371310000
H   	   -4.7662970000 	   -0.3161350000 	   -0.0359780000
H   	   -3.6223660000 	    1.5751550000 	   -1.1627490000
H   	   -1.1480700000 	    1.6787540000 	   -1.2031330000
H   	    3.2815060000 	    1.1808650000 	   -0.4987880000
