13
tauto -340.644393193
C   	    2.5453230000 	   -0.3685770000 	    0.0004440000
C   	    1.0790070000 	   -0.0706530000 	   -0.0000420000
N   	    0.6537520000 	    1.1823280000 	   -0.0005030000
N   	   -0.6994900000 	    1.0790150000 	    0.0001160000
H   	   -1.2515140000 	    1.9213650000 	   -0.0000920000
C   	   -1.1177780000 	   -0.2087180000 	    0.0000010000
O   	   -2.4155490000 	   -0.5829720000 	    0.0001150000
C   	    0.0051430000 	   -0.9976620000 	   -0.0005920000
H   	    3.1093260000 	    0.5674880000 	   -0.0018030000
H   	    2.8315140000 	   -0.9505200000 	   -0.8823410000
H   	    2.8318240000 	   -0.9463280000 	    0.8858960000
H   	   -2.9887130000 	    0.1931050000 	    0.0020820000
H   	    0.0419480000 	   -2.0770760000 	   -0.0008210000
