13
tauto -340.650477819
C   	    2.4807730000 	   -0.4051300000 	   -0.0097290000
C   	    1.0082500000 	   -0.1615870000 	   -0.0256130000
N   	    0.5471320000 	    1.1512650000 	   -0.1213430000
N   	   -0.8379240000 	    1.0931260000 	    0.1185380000
C   	   -0.0224580000 	   -1.0278280000 	    0.0317460000
C   	   -1.2625250000 	   -0.2502880000 	    0.0360320000
O   	   -2.4282110000 	   -0.5855580000 	   -0.0344160000
H   	    2.9424380000 	    0.0351230000 	    0.8820950000
H   	    2.9559490000 	    0.0415550000 	   -0.8889080000
H   	    2.6874930000 	   -1.4772360000 	   -0.0039060000
H   	    1.0037400000 	    1.7997410000 	    0.5144000000
H   	   -1.3768180000 	    1.7509750000 	   -0.4314170000
H   	    0.0241870000 	   -2.1074380000 	    0.0280790000
