8
tauto -333.415990981
O   	   -2.0035090000 	   -0.0000180000 	    0.0001170000
C   	   -0.7927220000 	    0.0000020000 	    0.0001310000
N   	    0.1064770000 	   -1.0492360000 	   -0.0003180000
N   	    1.3938930000 	   -0.6311420000 	    0.0000960000
N   	    1.3938770000 	    0.6311480000 	    0.0002230000
N   	    0.1064500000 	    1.0492470000 	   -0.0003750000
H   	   -0.1102190000 	   -2.0329830000 	    0.0004820000
H   	   -0.1102550000 	    2.0329920000 	    0.0004100000
