13
tauto -340.650477684
C   	    2.4809630000 	   -0.4050160000 	   -0.0093930000
C   	    1.0082960000 	   -0.1615620000 	   -0.0258620000
N   	    0.5470200000 	    1.1511960000 	   -0.1213500000
N   	   -0.8380170000 	    1.0931350000 	    0.1184380000
C   	   -0.0224510000 	   -1.0278770000 	    0.0315240000
C   	   -1.2625460000 	   -0.2503780000 	    0.0360820000
O   	   -2.4283010000 	   -0.5855340000 	   -0.0341610000
H   	    2.9427250000 	    0.0373170000 	    0.8812800000
H   	    2.9559690000 	    0.0393450000 	   -0.8897610000
H   	    2.6880650000 	   -1.4770750000 	   -0.0016300000
H   	    1.0039660000 	    1.7999220000 	    0.5139180000
H   	   -1.3770270000 	    1.7509320000 	   -0.4315060000
H   	    0.0241190000 	   -2.1074990000 	    0.0272600000
