16
tauto -379.949639041
C   	    2.1756620000 	   -1.2986730000 	    0.1091580000
C   	    0.8558720000 	   -0.6135370000 	   -0.0077050000
C   	   -0.3760170000 	   -1.1104120000 	   -0.2248390000
N   	   -1.3350040000 	   -0.1164780000 	   -0.3771350000
C   	   -2.6069040000 	   -0.2931890000 	    0.3115560000
N   	   -0.6733070000 	    1.0753390000 	   -0.0386060000
C   	    0.7087030000 	    0.8475950000 	    0.0274930000
O   	    1.5535670000 	    1.7225880000 	    0.0783840000
H   	    2.0776750000 	   -2.3808150000 	   -0.0180200000
H   	    2.6293360000 	   -1.1037330000 	    1.0867330000
H   	    2.8726400000 	   -0.9205890000 	   -0.6464690000
H   	   -0.6981020000 	   -2.1443290000 	   -0.2920240000
H   	   -3.0250440000 	   -1.2588820000 	    0.0146180000
H   	   -3.3005550000 	    0.4909040000 	   -0.0028900000
H   	   -2.4905880000 	   -0.2566050000 	    1.4024030000
H   	   -0.9796160000 	    1.8906160000 	   -0.5552140000
