26
tauto -631.802439501
O   	    0.2788680000 	   -1.7308300000 	   -0.0002770000
C   	    0.4932170000 	   -0.3973810000 	   -0.0001330000
C   	    1.9400110000 	   -0.0302160000 	   -0.0000420000
N   	    2.7548200000 	   -1.0918270000 	   -0.0001690000
C   	    4.0735810000 	   -0.8977890000 	   -0.0000940000
C   	    4.6525180000 	    0.3625020000 	    0.0001280000
C   	    3.8065320000 	    1.4694180000 	    0.0002550000
C   	    2.4343040000 	    1.2777660000 	    0.0001690000
C   	   -0.5043870000 	    0.5041870000 	   -0.0000670000
C   	   -1.9527700000 	    0.2712500000 	   -0.0000260000
C   	   -2.5465270000 	   -1.0008170000 	    0.0002670000
C   	   -3.9306710000 	   -1.1325600000 	    0.0003570000
C   	   -4.7539490000 	   -0.0102620000 	    0.0001280000
C   	   -4.1787240000 	    1.2573680000 	   -0.0002040000
C   	   -2.7970380000 	    1.3922630000 	   -0.0002850000
H   	    1.1706700000 	   -2.1371930000 	   -0.0003040000
H   	    4.6881830000 	   -1.7958460000 	   -0.0001830000
H   	    5.7321560000 	    0.4737850000 	    0.0002110000
H   	    4.2160020000 	    2.4762180000 	    0.0004360000
H   	    1.7617480000 	    2.1284820000 	    0.0002740000
H   	   -0.2139150000 	    1.5507460000 	   -0.0000170000
H   	   -1.9173850000 	   -1.8828090000 	    0.0004190000
H   	   -4.3706520000 	   -2.1270640000 	    0.0006030000
H   	   -5.8352640000 	   -0.1225890000 	    0.0002060000
H   	   -4.8080830000 	    2.1441370000 	   -0.0003990000
H   	   -2.3547280000 	    2.3871830000 	   -0.0005660000
