23
tauto -571.640131065
C   	    0.6497360000 	    2.4177840000 	    0.5637480000
C   	    1.2886990000 	    1.1183600000 	    0.2011570000
N   	    0.5680510000 	    0.1264780000 	   -0.4586000000
C   	   -0.8260040000 	   -0.0923570000 	   -0.2230070000
C   	   -1.2643710000 	   -1.1666500000 	    0.5506470000
C   	   -2.6275480000 	   -1.3552870000 	    0.7497730000
C   	   -3.5518140000 	   -0.4748320000 	    0.1935690000
C   	   -3.1075950000 	    0.5930010000 	   -0.5802980000
C   	   -1.7471470000 	    0.7783370000 	   -0.8027340000
N   	    1.3820860000 	   -1.0155000000 	   -0.4557550000
C   	    2.5548070000 	    0.7051380000 	    0.4336950000
C   	    2.6904210000 	   -0.6565220000 	   -0.0669500000
O   	    3.6506730000 	   -1.3931950000 	   -0.1859780000
H   	    0.3493810000 	    2.9754070000 	   -0.3293070000
H   	    1.3588660000 	    3.0264240000 	    1.1285320000
H   	   -0.2448850000 	    2.2630210000 	    1.1758650000
H   	   -0.5337630000 	   -1.8440130000 	    0.9819370000
H   	   -2.9682130000 	   -2.1937220000 	    1.3516720000
H   	   -4.6154900000 	   -0.6262200000 	    0.3556070000
H   	   -3.8225810000 	    1.2766810000 	   -1.0302500000
H   	   -1.3931640000 	    1.5857510000 	   -1.4379090000
H   	    1.3006600000 	   -1.5797820000 	   -1.2934120000
H   	    3.3577380000 	    1.2833280000 	    0.8679630000
