13
tauto -340.649432519
C   	   -2.5162120000 	   -0.4503890000 	   -0.0000340000
C   	   -1.0523480000 	   -0.1483550000 	    0.0000580000
C   	    0.0514190000 	   -0.9752040000 	    0.0004890000
C   	    1.1536250000 	   -0.0851530000 	   -0.0002280000
O   	    2.4758350000 	   -0.3805440000 	   -0.0004060000
N   	    0.7848840000 	    1.1784780000 	   -0.0001970000
N   	   -0.5657300000 	    1.1117500000 	    0.0003820000
H   	   -1.0885830000 	    1.9722920000 	    0.0006670000
H   	   -2.6740350000 	   -1.5313770000 	    0.0005040000
H   	   -3.0109750000 	   -0.0386350000 	   -0.8866370000
H   	   -3.0112140000 	   -0.0377330000 	    0.8860100000
H   	    0.0575950000 	   -2.0572610000 	    0.0008630000
H   	    2.5675520000 	   -1.3399220000 	   -0.0011690000
