16
tauto -379.954539002
C   	    2.8066920000 	   -0.1495720000 	    0.0653340000
C   	    1.3303100000 	    0.0669420000 	    0.0268840000
N   	    0.4870410000 	   -1.0423380000 	   -0.0188220000
N   	   -0.8021280000 	   -0.5442270000 	   -0.2531950000
C   	   -1.9237730000 	   -1.3481500000 	    0.1754050000
C   	    0.6098910000 	    1.2055050000 	    0.0410520000
C   	   -0.8040960000 	    0.8442600000 	   -0.0692200000
O   	   -1.8179150000 	    1.5184970000 	   -0.0047860000
H   	    3.1614490000 	   -0.6227170000 	   -0.8580650000
H   	    3.0819200000 	   -0.7993360000 	    0.9022980000
H   	    3.3249660000 	    0.8050820000 	    0.1767140000
H   	    0.7469860000 	   -1.7467180000 	   -0.7048510000
H   	   -2.0576750000 	   -2.2129170000 	   -0.4824060000
H   	   -2.8023390000 	   -0.7033360000 	    0.1080320000
H   	   -1.7966670000 	   -1.6918260000 	    1.2088440000
H   	    0.9761380000 	    2.2158300000 	    0.1551050000
