18
tauto -493.262502532
C   	    2.7756800000 	    0.1032350000 	    0.0011620000
C   	    1.5784300000 	   -0.8138890000 	   -0.0000710000
N   	    0.2941130000 	   -0.1960870000 	    0.0003240000
N   	   -0.8160280000 	   -0.9985290000 	    0.0003900000
C   	   -1.8405420000 	   -0.1805220000 	    0.0001230000
C   	   -3.2372730000 	   -0.7137110000 	    0.0003090000
C   	   -1.4355220000 	    1.1872990000 	   -0.0002900000
C   	   -0.0724050000 	    1.1283180000 	   -0.0002180000
O   	    0.8672150000 	    2.0954240000 	   -0.0006350000
O   	    1.6649700000 	   -2.0128020000 	   -0.0012670000
H   	    2.7779010000 	    0.7515910000 	   -0.8788820000
H   	    3.6627080000 	   -0.5307640000 	    0.0023180000
H   	    2.7758730000 	    0.7523260000 	    0.8806390000
H   	   -3.2100370000 	   -1.8056730000 	    0.0002810000
H   	   -3.7876970000 	   -0.3750870000 	   -0.8840350000
H   	   -3.7874300000 	   -0.3751590000 	    0.8848500000
H   	   -2.0581680000 	    2.0721430000 	   -0.0006190000
H   	    0.4125760000 	    2.9475730000 	   -0.0004190000
