15
tauto -395.986058476
C   	   -1.7826990000 	   -1.5153280000 	    0.0172060000
N   	   -0.6684310000 	   -0.6020710000 	   -0.0145330000
C   	   -0.6957860000 	    0.7408050000 	   -0.0004460000
O   	   -1.8936400000 	    1.3678310000 	    0.0079810000
C   	    0.6033540000 	    1.2032860000 	   -0.0025200000
N   	    0.6112310000 	   -1.0756170000 	   -0.0051420000
C   	    1.3663620000 	    0.0086010000 	   -0.0118470000
N   	    2.7571990000 	   -0.0918970000 	   -0.0825360000
H   	   -2.7039600000 	   -0.9464330000 	   -0.1186580000
H   	   -1.8190560000 	   -2.0449130000 	    0.9742680000
H   	   -1.6783320000 	   -2.2436150000 	   -0.7908530000
H   	   -1.7348170000 	    2.3181640000 	   -0.0367120000
H   	    0.9503570000 	    2.2267120000 	   -0.0289630000
H   	    3.0570170000 	   -1.0420040000 	    0.1006440000
H   	    3.2305280000 	    0.5523470000 	    0.5375500000
