24
tauto -646.830776899
C   	   -3.4965190000 	   -1.9513920000 	    0.2282350000
O   	   -3.5203080000 	   -0.5401980000 	    0.0648050000
C   	   -2.3157000000 	    0.0470610000 	    0.0111540000
C   	   -2.1304640000 	    1.4416230000 	   -0.1437800000
C   	   -0.7631660000 	    1.5694090000 	   -0.1380660000
O   	    0.0297860000 	    2.6514010000 	   -0.2720940000
N   	   -1.1883660000 	   -0.6210560000 	    0.1071900000
N   	   -0.2116090000 	    0.3389450000 	    0.0209800000
C   	    1.1517690000 	   -0.0535100000 	    0.0210740000
C   	    2.1579920000 	    0.8218450000 	    0.4290630000
C   	    3.4818860000 	    0.3944240000 	    0.4132820000
C   	    3.8077750000 	   -0.8971810000 	    0.0145570000
C   	    2.7935000000 	   -1.7682520000 	   -0.3738270000
C   	    1.4683850000 	   -1.3526650000 	   -0.3768570000
H   	   -4.5408780000 	   -2.2655070000 	    0.2564040000
H   	   -2.9902090000 	   -2.2270450000 	    1.1590520000
H   	   -2.9777650000 	   -2.4311050000 	   -0.6085530000
H   	   -2.8823510000 	    2.2108770000 	   -0.2389590000
H   	   -0.5360390000 	    3.4114520000 	   -0.4570910000
H   	    1.9116690000 	    1.8244880000 	    0.7572510000
H   	    4.2627170000 	    1.0813480000 	    0.7294290000
H   	    4.8438530000 	   -1.2249230000 	    0.0107340000
H   	    3.0332110000 	   -2.7824120000 	   -0.6830610000
H   	    0.6670460000 	   -2.0201930000 	   -0.6730940000
