19
tauto -419.265384766
C   	    1.6711310000 	    1.8349960000 	    0.0794520000
C   	    0.7662200000 	    0.6524250000 	   -0.0153050000
C   	    1.0306840000 	   -0.6695680000 	    0.0059780000
C   	    2.3283520000 	   -1.4063640000 	    0.0469320000
N   	   -0.1556710000 	   -1.4165690000 	    0.0016520000
N   	   -1.1876210000 	   -0.4978890000 	   -0.2403980000
C   	   -2.5173280000 	   -0.8395630000 	    0.2089760000
C   	   -0.6920570000 	    0.7965110000 	   -0.1047990000
O   	   -1.3840100000 	    1.8012660000 	   -0.0489690000
H   	    2.6926240000 	    1.5506290000 	    0.3503380000
H   	    1.2941730000 	    2.5368140000 	    0.8306930000
H   	    1.7087910000 	    2.3771220000 	   -0.8720390000
H   	    3.1598560000 	   -0.7103380000 	    0.1786080000
H   	    2.4992200000 	   -1.9591800000 	   -0.8848920000
H   	    2.3403050000 	   -2.1262050000 	    0.8716340000
H   	   -0.1657070000 	   -2.1637160000 	   -0.6896740000
H   	   -2.9573860000 	   -1.6133110000 	   -0.4283520000
H   	   -3.1097760000 	    0.0742820000 	    0.1299900000
H   	   -2.5089870000 	   -1.1856440000 	    1.2492750000
