26
tauto -610.95502323
C   	    3.5610430000 	   -1.3062260000 	    0.3425430000
C   	    2.3601220000 	   -0.4595340000 	    0.0847400000
C   	    1.0171550000 	   -1.0442370000 	   -0.0054400000
O   	    0.6779400000 	   -2.2101810000 	    0.1141970000
C   	    2.2333330000 	    0.8712760000 	   -0.0802790000
C   	    3.2566890000 	    1.9559320000 	   -0.1366030000
N   	    0.8838850000 	    1.2346080000 	   -0.1847940000
N   	    0.1634830000 	    0.0357140000 	   -0.2503060000
C   	   -1.2395690000 	    0.0715400000 	   -0.0960710000
C   	   -1.9948310000 	   -1.0795970000 	   -0.3420230000
C   	   -3.3772210000 	   -1.0246090000 	   -0.2155020000
C   	   -4.0196990000 	    0.1592910000 	    0.1368370000
C   	   -3.2602250000 	    1.2988830000 	    0.3762480000
C   	   -1.8742980000 	    1.2616300000 	    0.2660470000
H   	    3.6653600000 	   -2.0703440000 	   -0.4348720000
H   	    3.4604740000 	   -1.8346300000 	    1.2966460000
H   	    4.4806890000 	   -0.7141950000 	    0.3715830000
H   	    4.2610960000 	    1.5400250000 	   -0.0325850000
H   	    3.0952480000 	    2.6833900000 	    0.6655450000
H   	    3.2117320000 	    2.4942500000 	   -1.0910140000
H   	    0.6744400000 	    1.8227190000 	   -0.9894360000
H   	   -1.4905750000 	   -2.0005880000 	   -0.6067130000
H   	   -3.9582400000 	   -1.9242050000 	   -0.4021760000
H   	   -5.1020060000 	    0.1917730000 	    0.2274720000
H   	   -3.7449820000 	    2.2293190000 	    0.6611760000
H   	   -1.2833290000 	    2.1455860000 	    0.4835200000
