17
tauto -455.143637271
C   	   -2.5434180000 	   -0.7477260000 	    0.5881440000
C   	   -1.5012090000 	   -0.9609370000 	   -0.5135240000
C   	   -0.2216400000 	   -0.2322620000 	   -0.2397050000
C   	    1.0282180000 	   -0.6933130000 	   -0.0228650000
N   	    1.5789470000 	   -1.9506960000 	   -0.1011940000
N   	    1.9055040000 	    0.3438310000 	    0.3194610000
O   	    1.1793680000 	    1.5385610000 	    0.1846640000
C   	   -0.1412990000 	    1.2128040000 	   -0.1209780000
O   	   -0.9756530000 	    2.0759360000 	   -0.2175860000
H   	   -3.4828680000 	   -1.2540390000 	    0.3429300000
H   	   -2.7465090000 	    0.3206890000 	    0.7063560000
H   	   -2.1836740000 	   -1.1355250000 	    1.5474440000
H   	   -1.9111430000 	   -0.6138660000 	   -1.4700230000
H   	   -1.3004550000 	   -2.0335110000 	   -0.6404490000
H   	    0.9025450000 	   -2.6967870000 	   -0.1854300000
H   	    2.2790080000 	   -2.1449450000 	    0.6029950000
H   	    2.6983050000 	    0.4186690000 	   -0.3147450000
