11
tauto -376.528772541
N   	    2.3715850000 	   -0.3859470000 	    0.0810650000
C   	    1.0183920000 	   -0.1897640000 	   -0.0072530000
N   	    0.5864970000 	    1.1361970000 	   -0.0968250000
O   	   -0.8134480000 	    1.1100560000 	   -0.0133640000
C   	   -0.0306820000 	   -1.0390260000 	   -0.0029840000
C   	   -1.2317820000 	   -0.2285840000 	    0.0064530000
O   	   -2.4037430000 	   -0.4897300000 	    0.0086110000
H   	    2.9348310000 	    0.2700030000 	   -0.4433390000
H   	    2.6729440000 	   -1.3427560000 	   -0.0332370000
H   	    0.9129010000 	    1.7206610000 	    0.6695660000
H   	   -0.0252940000 	   -2.1180280000 	   -0.0219430000
