15
tauto -399.799300653
C   	   -0.1200020000 	    2.1666330000 	    0.0208750000
C   	   -0.0490980000 	    0.6763870000 	    0.0271340000
C   	    1.0064450000 	   -0.1570560000 	   -0.0116530000
C   	    2.4761660000 	    0.0682410000 	   -0.0331660000
O   	    0.6451980000 	   -1.4701810000 	   -0.0130430000
N   	   -0.7438250000 	   -1.4818760000 	    0.1486090000
C   	   -1.2398330000 	   -0.1736730000 	    0.0141340000
O   	   -2.4198290000 	    0.1038560000 	   -0.0704450000
H   	    0.8584670000 	    2.6215470000 	   -0.1600230000
H   	   -0.5024840000 	    2.5448490000 	    0.9750530000
H   	   -0.8095650000 	    2.5060230000 	   -0.7586450000
H   	    2.6950320000 	    1.1350740000 	   -0.1126980000
H   	    2.9306860000 	   -0.4511720000 	   -0.8825240000
H   	    2.9341950000 	   -0.3180200000 	    0.8829480000
H   	   -1.1445720000 	   -2.2177490000 	   -0.4204180000
