26
tauto -705.978285233
C   	   -1.8074650000 	    3.3602700000 	   -0.0526560000
O   	   -1.4863760000 	    2.0393540000 	   -0.4180650000
C   	   -1.5432870000 	    1.1632570000 	    0.6939710000
C   	   -1.2871480000 	   -0.2344820000 	    0.2507920000
C   	   -0.1245640000 	   -0.8664000000 	   -0.0221920000
C   	    1.2684050000 	   -0.3969180000 	   -0.0072100000
C   	    1.5662070000 	    0.9301950000 	   -0.3350320000
C   	    2.8866230000 	    1.3646770000 	   -0.3169450000
C   	    3.9116600000 	    0.4846540000 	    0.0202850000
C   	    3.6173510000 	   -0.8375540000 	    0.3431110000
C   	    2.3001220000 	   -1.2794320000 	    0.3312860000
N   	   -0.3667410000 	   -2.2094820000 	   -0.2983190000
O   	   -1.7512380000 	   -2.3879830000 	   -0.3618380000
C   	   -2.3579240000 	   -1.1976010000 	    0.0243500000
O   	   -3.5514200000 	   -1.1194910000 	    0.1447760000
H   	   -1.7533610000 	    3.9683290000 	   -0.9583420000
H   	   -1.0992070000 	    3.7568990000 	    0.6922460000
H   	   -2.8234510000 	    3.4252010000 	    0.3643660000
H   	   -2.5418540000 	    1.2056600000 	    1.1541230000
H   	   -0.8024470000 	    1.4708760000 	    1.4504740000
H   	    0.7590560000 	    1.6016140000 	   -0.6206520000
H   	    3.1164420000 	    2.3951860000 	   -0.5742190000
H   	    4.9423150000 	    0.8298100000 	    0.0319020000
H   	    4.4147600000 	   -1.5246560000 	    0.6129740000
H   	    2.0605830000 	   -2.3036690000 	    0.6062140000
H   	    0.0267500000 	   -2.5579080000 	   -1.1683900000
