18
tauto -568.231316516
O   	    1.5236880000 	    2.0571590000 	   -0.0000200000
C   	    1.0211750000 	    0.8140400000 	   -0.0000470000
C   	   -0.3129480000 	    0.4813890000 	    0.0000060000
C   	   -1.3916980000 	    1.4465570000 	    0.0000410000
C   	   -2.6818260000 	    1.0433880000 	   -0.0000280000
C   	   -3.0236520000 	   -0.3594650000 	    0.0000120000
C   	   -2.0565000000 	   -1.3013090000 	    0.0000760000
C   	   -0.6605110000 	   -0.9242480000 	   -0.0001330000
N   	    0.2282480000 	   -1.8873990000 	   -0.0000360000
N   	    1.5038260000 	   -1.4981570000 	   -0.0000160000
C   	    2.0488700000 	   -0.2246370000 	   -0.0000650000
O   	    3.2553410000 	   -0.0433910000 	    0.0001290000
H   	    0.8063610000 	    2.7041730000 	   -0.0002540000
H   	   -1.1726450000 	    2.5127510000 	    0.0003300000
H   	   -3.4799660000 	    1.7804360000 	   -0.0000340000
H   	   -4.0712150000 	   -0.6467130000 	    0.0000670000
H   	   -2.2774410000 	   -2.3644210000 	    0.0002140000
H   	    2.1806980000 	   -2.2517820000 	   -0.0000090000
