16
tauto -434.132649377
C   	    2.5534300000 	    0.6118250000 	    0.0046730000
N   	    1.1085200000 	    0.4450730000 	    0.0010770000
C   	    0.2603070000 	    1.4994610000 	   -0.0002750000
C   	   -1.0821080000 	    1.3239350000 	   -0.0035660000
C   	   -1.5368110000 	   -0.0384700000 	   -0.0047520000
N   	   -2.8738710000 	   -0.2880340000 	   -0.0427280000
N   	   -0.7337640000 	   -1.0750380000 	    0.0016640000
C   	    0.6242420000 	   -0.8954880000 	   -0.0012730000
O   	    1.4436750000 	   -1.7958170000 	   -0.0002000000
H   	    2.7890490000 	    1.6786980000 	    0.0052750000
H   	    2.9860270000 	    0.1350760000 	   -0.8777370000
H   	    2.9820470000 	    0.1349960000 	    0.8890310000
H   	    0.7203100000 	    2.4839500000 	   -0.0002630000
H   	   -1.7657550000 	    2.1641760000 	   -0.0171010000
H   	   -3.5299400000 	    0.4341220000 	    0.2046260000
H   	   -3.1517020000 	   -1.2460730000 	    0.1088410000
