17
tauto -509.273097205
C   	    2.9951790000 	    0.1636990000 	    0.0262500000
N   	    1.5466060000 	    0.3075700000 	    0.0075150000
C   	    0.9425740000 	    1.5214950000 	    0.0164160000
C   	   -0.4054490000 	    1.6450920000 	   -0.0024640000
C   	   -1.1314190000 	    0.4111830000 	   -0.0346510000
N   	   -2.4931670000 	    0.4320590000 	   -0.1286890000
O   	   -3.1396300000 	   -0.7830070000 	    0.0820880000
N   	   -0.5721390000 	   -0.7752950000 	   -0.0362400000
C   	    0.7951170000 	   -0.8989830000 	   -0.0160920000
O   	    1.3936340000 	   -1.9563380000 	   -0.0114900000
H   	    3.4514040000 	    1.1552880000 	    0.0642800000
H   	    3.3295240000 	   -0.3652950000 	   -0.8690570000
H   	    3.2990160000 	   -0.4202920000 	    0.8976760000
H   	    1.6046180000 	    2.3825520000 	    0.0381140000
H   	   -0.8951580000 	    2.6108520000 	   -0.0127840000
H   	   -2.9805670000 	    1.1604920000 	    0.3759840000
H   	   -2.3859690000 	   -1.4140960000 	    0.1061420000
