18
tauto -489.43908307
C   	    3.0173970000 	    0.1594780000 	    0.0116060000
N   	    1.5698080000 	    0.3025780000 	    0.0000120000
C   	    0.9639310000 	    1.5149170000 	    0.0074600000
C   	   -0.3837520000 	    1.6303350000 	   -0.0000340000
C   	   -1.1159410000 	    0.3938480000 	   -0.0215810000
N   	   -2.4742720000 	    0.4439190000 	   -0.0546910000
N   	   -3.2666760000 	   -0.7017180000 	    0.0640790000
N   	   -0.5534310000 	   -0.7913660000 	   -0.0216810000
C   	    0.8137180000 	   -0.9029640000 	   -0.0089690000
O   	    1.4198440000 	   -1.9583700000 	   -0.0023700000
H   	    3.4743640000 	    1.1515890000 	   -0.0072180000
H   	    3.3405740000 	   -0.4159910000 	   -0.8586040000
H   	    3.3337950000 	   -0.3789670000 	    0.9080260000
H   	    1.6233240000 	    2.3785370000 	    0.0185070000
H   	   -0.8740720000 	    2.5964010000 	   -0.0034330000
H   	   -2.9451470000 	    1.3067120000 	    0.1663140000
H   	   -2.8272580000 	   -1.3029030000 	    0.7611900000
H   	   -3.1844520000 	   -1.2159940000 	   -0.8107370000
