14
tauto -415.828896335
O   	    1.9595780000 	   -1.0962390000 	    0.2156890000
C   	    0.6894740000 	   -0.6726920000 	    0.0340590000
C   	   -0.3973410000 	   -1.4345880000 	   -0.1359770000
C   	   -1.7450760000 	   -0.7742340000 	   -0.3052060000
N   	   -1.8010390000 	    0.5140490000 	    0.3789300000
N   	   -0.6953050000 	    1.2917630000 	   -0.0007100000
C   	    0.5914990000 	    0.8281010000 	   -0.0449460000
O   	    1.5519060000 	    1.5520330000 	   -0.2143540000
H   	    1.9674520000 	   -2.0624890000 	    0.1952520000
H   	   -0.3234040000 	   -2.5210010000 	   -0.1759830000
H   	   -2.5423530000 	   -1.3978220000 	    0.1118430000
H   	   -1.9792920000 	   -0.6086630000 	   -1.3649630000
H   	   -1.7262240000 	    0.3377300000 	    1.3814500000
H   	   -0.8449800000 	    2.2856830000 	   -0.0933910000
