16
tauto -417.035327889
C   	   -2.7966780000 	    0.0178680000 	    0.6487280000
N   	   -2.0581720000 	   -0.3929960000 	   -0.5466660000
N   	   -0.7175040000 	   -0.6495250000 	   -0.2467250000
C   	    0.1806610000 	    0.3617840000 	   -0.1407370000
C   	    1.6048590000 	   -0.0808980000 	    0.0606990000
O   	    1.7414030000 	   -1.4406350000 	    0.0803640000
C   	    2.5799800000 	    0.8118270000 	    0.1972130000
O   	   -0.1329550000 	    1.5409980000 	   -0.2118340000
H   	   -3.8187660000 	    0.2634560000 	    0.3447450000
H   	   -2.3496600000 	    0.8850500000 	    1.1511850000
H   	   -2.8391230000 	   -0.8225030000 	    1.3474200000
H   	   -2.0559680000 	    0.3838260000 	   -1.2049250000
H   	   -0.4060810000 	   -1.6042970000 	   -0.3396210000
H   	    2.6729030000 	   -1.6623690000 	    0.2069940000
H   	    2.3285370000 	    1.8643660000 	    0.1589110000
H   	    3.6173750000 	    0.5237310000 	    0.3453690000
