22
tauto -753.929686507
O   	   -2.0260790000 	    2.7000270000 	    0.0000050000
C   	   -2.0537870000 	    1.3594400000 	    0.0000040000
C   	   -0.7686680000 	    0.6567120000 	   -0.0000030000
N   	    0.3354160000 	    1.3739480000 	   -0.0000010000
C   	    1.4971790000 	    0.6825080000 	   -0.0000020000
C   	    2.7354380000 	    1.3813910000 	   -0.0000040000
C   	    3.9079390000 	    0.6812740000 	   -0.0000050000
C   	    3.9094920000 	   -0.7431360000 	    0.0000020000
C   	    2.7363270000 	   -1.4412260000 	    0.0000070000
C   	    1.4952880000 	   -0.7439690000 	    0.0000020000
N   	    0.3450420000 	   -1.4541880000 	    0.0000010000
C   	   -0.7704500000 	   -0.7608750000 	   -0.0000030000
N   	   -3.1823240000 	    0.7570230000 	    0.0000080000
N   	   -3.1562850000 	   -0.6110910000 	   -0.0000100000
C   	   -2.0846970000 	   -1.4742550000 	   -0.0000130000
O   	   -2.2220590000 	   -2.6805840000 	    0.0000050000
H   	   -1.0860830000 	    2.9544750000 	    0.0000040000
H   	    2.7088100000 	    2.4669910000 	   -0.0000060000
H   	    4.8560470000 	    1.2120240000 	   -0.0000090000
H   	    4.8583330000 	   -1.2721370000 	    0.0000060000
H   	    2.7027700000 	   -2.5264690000 	    0.0000150000
H   	   -4.0720750000 	   -1.0374490000 	    0.0000060000
