12
tauto -414.646597695
O   	   -2.6582830000 	   -0.0234560000 	   -0.0378110000
C   	   -1.4444930000 	    0.0237890000 	    0.0345680000
C   	   -0.6663450000 	    1.2827620000 	    0.0399980000
C   	    0.6663410000 	    1.2827430000 	   -0.0400100000
N   	   -0.6910950000 	   -1.1287080000 	    0.1168900000
N   	    0.6911380000 	   -1.1287650000 	   -0.1169900000
C   	    1.4444790000 	    0.0237420000 	   -0.0346770000
O   	    2.6582700000 	   -0.0234180000 	    0.0379080000
H   	   -1.2556890000 	    2.1939520000 	    0.0643720000
H   	    1.2556820000 	    2.1939350000 	   -0.0642600000
H   	   -1.1577450000 	   -1.9444810000 	   -0.2600590000
H   	    1.1576530000 	   -1.9443290000 	    0.2605850000
