20
tauto -623.598919071
O   	    0.9132310000 	    2.3386810000 	    0.0033730000
C   	    1.3482310000 	    1.0770170000 	    0.0013390000
N   	    2.6115120000 	    0.7168300000 	    0.0010110000
C   	    2.5009120000 	   -0.6404900000 	   -0.0009310000
O   	    3.5757850000 	   -1.4361220000 	   -0.0019160000
N   	    1.2900110000 	   -1.1294040000 	   -0.0018260000
N   	    0.5194440000 	    0.0166690000 	   -0.0003820000
C   	   -0.9000360000 	   -0.0789030000 	   -0.0003480000
C   	   -1.7073840000 	    1.0585480000 	   -0.0034030000
C   	   -3.0906130000 	    0.9082040000 	   -0.0031350000
C   	   -3.6712850000 	   -0.3546960000 	   -0.0000140000
C   	   -2.8531350000 	   -1.4808550000 	    0.0028250000
C   	   -1.4704870000 	   -1.3517820000 	    0.0027120000
H   	    1.7058570000 	    2.8963720000 	    0.0048210000
H   	    4.3502000000 	   -0.8572390000 	   -0.0010530000
H   	   -1.2695980000 	    2.0487430000 	   -0.0060590000
H   	   -3.7165250000 	    1.7968210000 	   -0.0054860000
H   	   -4.7525330000 	   -0.4616460000 	    0.0001400000
H   	   -3.2923290000 	   -2.4749300000 	    0.0052460000
H   	   -0.8211980000 	   -2.2195210000 	    0.0048470000
