10
tauto -392.59605056
O   	    2.2437930000 	   -0.5821010000 	    0.0115820000
C   	    0.9652470000 	   -0.2251650000 	   -0.0173340000
N   	    0.6415860000 	    1.1305570000 	   -0.1035240000
N   	   -0.7523380000 	    1.1254080000 	    0.1152250000
N   	   -0.0146240000 	   -1.0472230000 	    0.0343020000
C   	   -1.1653320000 	   -0.2377270000 	    0.0352140000
O   	   -2.3163170000 	   -0.5769580000 	   -0.0384760000
H   	    2.7972420000 	    0.1520910000 	   -0.2907660000
H   	    1.1142410000 	    1.6991860000 	    0.5957420000
H   	   -1.2531460000 	    1.7373590000 	   -0.5191230000
