18
tauto -568.271234097
O   	   -1.0529030000 	   -2.6702930000 	    0.0560560000
C   	   -0.9796220000 	   -1.4567780000 	   -0.0185980000
C   	    0.2967480000 	   -0.6979010000 	   -0.0260450000
C   	    0.2968000000 	    0.6977240000 	    0.0261460000
C   	    1.5017210000 	    1.3979720000 	    0.0441500000
C   	    2.6994680000 	    0.6981910000 	    0.0221860000
C   	    2.6994320000 	   -0.6985460000 	   -0.0218390000
C   	    1.5016310000 	   -1.3982350000 	   -0.0440030000
N   	   -2.1229720000 	   -0.6930790000 	   -0.1135940000
N   	   -2.1230080000 	    0.6936760000 	    0.1152370000
C   	   -0.9794450000 	    1.4568640000 	    0.0183800000
O   	   -1.0520880000 	    2.6703600000 	   -0.0578420000
H   	    1.4704310000 	    2.4830010000 	    0.0742230000
H   	    3.6421010000 	    1.2385600000 	    0.0396300000
H   	    3.6420350000 	   -1.2389710000 	   -0.0391490000
H   	    1.4702840000 	   -2.4832610000 	   -0.0742700000
H   	   -2.9419580000 	   -1.1528910000 	    0.2643610000
H   	   -2.9415050000 	    1.1531060000 	   -0.2642690000
