26
tauto -631.790843297
O   	   -0.1924940000 	   -1.7641580000 	   -0.3460870000
C   	   -0.4771400000 	   -0.4509550000 	   -0.0974420000
C   	   -1.9201970000 	   -0.1072110000 	   -0.0382350000
C   	   -2.8329460000 	   -1.0287290000 	    0.4872130000
C   	   -4.1889630000 	   -0.7259010000 	    0.5464530000
C   	   -4.6515050000 	    0.5000120000 	    0.0785310000
C   	   -3.7506090000 	    1.4213540000 	   -0.4502180000
C   	   -2.3960250000 	    1.1186370000 	   -0.5140060000
C   	    0.4985880000 	    0.4424670000 	    0.1325760000
C   	    1.9547910000 	    0.2636710000 	    0.0873030000
C   	    2.6103580000 	   -0.9449000000 	   -0.2028440000
N   	    3.9352350000 	   -1.0844340000 	   -0.2508910000
C   	    4.6854050000 	   -0.0104150000 	   -0.0021110000
C   	    4.1525610000 	    1.2370290000 	    0.3029660000
C   	    2.7732420000 	    1.3692440000 	    0.3463660000
H   	   -0.9624720000 	   -2.1721500000 	   -0.7640590000
H   	   -2.4733760000 	   -1.9756690000 	    0.8848480000
H   	   -4.8846850000 	   -1.4473210000 	    0.9670230000
H   	   -5.7113440000 	    0.7362810000 	    0.1232140000
H   	   -4.1074420000 	    2.3758460000 	   -0.8284280000
H   	   -1.6979480000 	    1.8255770000 	   -0.9548910000
H   	    0.1649490000 	    1.4394120000 	    0.4098870000
H   	    2.0316720000 	   -1.8402250000 	   -0.4042290000
H   	    5.7636250000 	   -0.1569470000 	   -0.0490790000
H   	    4.8050800000 	    2.0826130000 	    0.5011660000
H   	    2.3198980000 	    2.3310690000 	    0.5801720000
