18
tauto -568.261393464
O   	    1.1699530000 	    2.6645200000 	    0.0039020000
C   	    1.0642100000 	    1.3105620000 	    0.0089420000
C   	   -0.2514230000 	    0.6757890000 	   -0.0042810000
C   	   -0.2859390000 	   -0.7237580000 	    0.0219750000
C   	   -1.5051100000 	   -1.4049200000 	    0.0350130000
C   	   -2.6894300000 	   -0.6908300000 	    0.0146630000
C   	   -2.6626700000 	    0.7086960000 	   -0.0348360000
C   	   -1.4581270000 	    1.3893950000 	   -0.0485460000
N   	    2.1697730000 	    0.6635860000 	   -0.0084130000
N   	    2.0933720000 	   -0.6931320000 	   -0.0524170000
C   	    0.9772300000 	   -1.4903180000 	    0.0023860000
O   	    1.0541600000 	   -2.7091460000 	    0.0149680000
H   	    0.4244910000 	    3.0408770000 	    0.4879810000
H   	   -1.4846490000 	   -2.4905980000 	    0.0553450000
H   	   -3.6421510000 	   -1.2128280000 	    0.0248830000
H   	   -3.5950450000 	    1.2656590000 	   -0.0714320000
H   	   -1.4585690000 	    2.4742280000 	   -0.1243260000
H   	    2.9885540000 	   -1.1611980000 	   -0.0694900000
