20
tauto -623.605443187
O   	    3.5617890000 	   -1.4521110000 	    0.0004410000
C   	    2.4945010000 	   -0.6464890000 	    0.0002420000
N   	    2.5584140000 	    0.7233360000 	   -0.0002450000
C   	    1.2470960000 	    1.2152600000 	   -0.0003810000
O   	    0.9140270000 	    2.3834030000 	   -0.0008110000
N   	    1.2895550000 	   -1.0882180000 	    0.0004350000
N   	    0.5010260000 	    0.0571950000 	    0.0000230000
C   	   -0.9107600000 	   -0.0676550000 	    0.0000420000
C   	   -1.7277690000 	    1.0651760000 	    0.0007630000
C   	   -3.1090980000 	    0.9021640000 	    0.0007520000
C   	   -3.6819040000 	   -0.3649720000 	    0.0000550000
C   	   -2.8548160000 	   -1.4843660000 	   -0.0006390000
C   	   -1.4727480000 	   -1.3451220000 	   -0.0006660000
H   	    4.3766790000 	   -0.9357800000 	    0.0007690000
H   	    3.3615230000 	    1.3314510000 	   -0.0005770000
H   	   -1.2823700000 	    2.0522180000 	    0.0012690000
H   	   -3.7416840000 	    1.7863460000 	    0.0013040000
H   	   -4.7623530000 	   -0.4803540000 	    0.0000600000
H   	   -3.2861200000 	   -2.4822360000 	   -0.0011940000
H   	   -0.8221730000 	   -2.2121430000 	   -0.0011670000
