13
tauto -374.000029685
N   	    2.2493330000 	   -0.8833630000 	   -0.1066340000
C   	    1.1148520000 	   -0.1139020000 	    0.0083920000
N   	    1.3194160000 	    1.2245270000 	    0.0791740000
N   	   -0.0326460000 	   -0.7353660000 	    0.0417480000
C   	   -1.1985450000 	    0.0144090000 	    0.0041510000
N   	   -2.3081970000 	   -0.7788550000 	    0.0398040000
O   	   -1.3090070000 	    1.2454980000 	   -0.0376290000
H   	    3.0774190000 	   -0.5408640000 	    0.3590820000
H   	    2.0674960000 	   -1.8666430000 	    0.0357620000
H   	    2.1731380000 	    1.5969710000 	   -0.3064610000
H   	    0.4605350000 	    1.7678090000 	   -0.0010560000
H   	   -2.2019160000 	   -1.7694220000 	   -0.1009410000
H   	   -3.1978040000 	   -0.3434890000 	   -0.1392520000
