21
tauto -491.61131648
N   	   -3.6811840000 	    0.9108510000 	   -0.3608660000
C   	   -2.6273870000 	    0.0724460000 	   -0.0241010000
N   	   -2.9426960000 	   -1.0231610000 	    0.7395370000
N   	   -1.4642060000 	    0.3160820000 	   -0.5258680000
N   	   -0.5370220000 	   -0.7111330000 	   -0.2000900000
C   	    0.8027870000 	   -0.2876790000 	   -0.1157310000
C   	    1.8236750000 	   -1.2336980000 	   -0.2630930000
C   	    3.1526040000 	   -0.8603570000 	   -0.1166430000
C   	    3.4884070000 	    0.4596800000 	    0.1758900000
C   	    2.4717800000 	    1.3988180000 	    0.3176970000
C   	    1.1361530000 	    1.0364620000 	    0.1758270000
H   	   -4.2872790000 	    1.1606210000 	    0.4099000000
H   	   -3.3420830000 	    1.7270190000 	   -0.8546160000
H   	   -3.8030770000 	   -1.0083460000 	    1.2639410000
H   	   -2.1385410000 	   -1.4378620000 	    1.1930030000
H   	   -0.6308560000 	   -1.4798810000 	   -0.8592800000
H   	    1.5687490000 	   -2.2683230000 	   -0.4880950000
H   	    3.9327420000 	   -1.6087460000 	   -0.2351950000
H   	    4.5291330000 	    0.7506590000 	    0.2895370000
H   	    2.7176720000 	    2.4348690000 	    0.5398320000
H   	    0.3411780000 	    1.7674950000 	    0.2728870000
