11
tauto -260.589244903
N   	    1.6261810000 	   -0.7066670000 	    0.0000690000
C   	    0.4048610000 	   -0.0540520000 	    0.0000030000
N   	    0.4997350000 	    1.3279710000 	   -0.0000050000
N   	   -0.6636530000 	   -0.7511890000 	   -0.0000560000
N   	   -1.8815550000 	   -0.1046130000 	   -0.0000830000
H   	    2.5021050000 	   -0.2202720000 	    0.0000370000
H   	    1.6170530000 	   -1.7104420000 	    0.0000540000
H   	    1.3896330000 	    1.7915690000 	    0.0000800000
H   	   -0.3138290000 	    1.9124150000 	   -0.0001160000
H   	   -2.6847020000 	   -0.6996090000 	    0.0000860000
H   	   -2.0043840000 	    0.8921350000 	    0.0003660000
