10
tauto -280.456633989
N   	   -1.6617870000 	   -0.5990240000 	    0.0000020000
C   	   -0.4063320000 	   -0.0436170000 	    0.0000000000
N   	   -0.3293260000 	    1.3186660000 	   -0.0000030000
N   	    0.6159230000 	   -0.8324670000 	    0.0000000000
O   	    1.7954190000 	   -0.0298310000 	    0.0000000000
H   	   -2.4954110000 	   -0.0423450000 	   -0.0000060000
H   	   -1.7361460000 	   -1.6007770000 	   -0.0000020000
H   	   -1.1418640000 	    1.9066450000 	    0.0000110000
H   	    0.5891350000 	    1.7277710000 	    0.0000050000
H   	    2.4852580000 	   -0.7011660000 	    0.0000000000
