19
tauto -436.305365793
N   	   -3.3601920000 	   -0.4296720000 	   -0.1775290000
C   	   -2.0470130000 	   -0.0238290000 	    0.0216950000
N   	   -1.9409330000 	    1.0411640000 	    0.9038580000
N   	   -1.0988630000 	   -0.6401280000 	   -0.5782510000
C   	    0.2398380000 	   -0.3127700000 	   -0.3068270000
C   	    0.7689310000 	    0.9588380000 	   -0.5667590000
C   	    2.1157580000 	    1.2267560000 	   -0.3346200000
C   	    2.9575910000 	    0.2354020000 	    0.1576410000
C   	    2.4402280000 	   -1.0344480000 	    0.4089500000
C   	    1.0991500000 	   -1.3086060000 	    0.1751220000
H   	   -4.0215480000 	    0.3297890000 	   -0.2741520000
H   	   -3.4233610000 	   -1.0980410000 	   -0.9341730000
H   	   -2.6178060000 	    1.0236870000 	    1.6546280000
H   	   -0.9986110000 	    1.2222870000 	    1.2251110000
H   	    0.1170480000 	    1.7295800000 	   -0.9728280000
H   	    2.5083230000 	    2.2187700000 	   -0.5463050000
H   	    4.0088380000 	    0.4453220000 	    0.3361830000
H   	    3.0902590000 	   -1.8202040000 	    0.7870180000
H   	    0.6898790000 	   -2.2988010000 	    0.3567660000
