20
tauto -623.598919081
O   	    0.9132310000 	    2.3386810000 	    0.0036720000
C   	    1.3482310000 	    1.0770170000 	    0.0014580000
N   	    2.6115110000 	    0.7168300000 	    0.0011010000
C   	    2.5009120000 	   -0.6404900000 	   -0.0010130000
O   	    3.5757850000 	   -1.4361210000 	   -0.0020870000
N   	    1.2900120000 	   -1.1294040000 	   -0.0019880000
N   	    0.5194440000 	    0.0166690000 	   -0.0004160000
C   	   -0.9000360000 	   -0.0789030000 	   -0.0003800000
C   	   -1.7073840000 	    1.0585470000 	   -0.0037050000
C   	   -3.0906130000 	    0.9082030000 	   -0.0034130000
C   	   -3.6712840000 	   -0.3546960000 	   -0.0000150000
C   	   -2.8531350000 	   -1.4808550000 	    0.0030760000
C   	   -1.4704860000 	   -1.3517810000 	    0.0029520000
H   	    1.7058560000 	    2.8963710000 	    0.0052480000
H   	    4.3502000000 	   -0.8572380000 	   -0.0011430000
H   	   -1.2695970000 	    2.0487410000 	   -0.0065960000
H   	   -3.7165250000 	    1.7968200000 	   -0.0059720000
H   	   -4.7525330000 	   -0.4616460000 	    0.0001540000
H   	   -3.2923290000 	   -2.4749290000 	    0.0057110000
H   	   -0.8211980000 	   -2.2195200000 	    0.0052770000
