14
tauto -303.764707376
N   	   -2.5137090000 	    0.0677310000 	   -0.0017620000
C   	   -1.3035350000 	   -0.7276450000 	    0.0079880000
C   	    0.0000210000 	    0.0643250000 	    0.0002840000
C   	    1.3034310000 	   -0.7282300000 	   -0.0083420000
N   	    2.5135360000 	    0.0677360000 	    0.0016420000
O   	    0.0005450000 	    1.2779980000 	   -0.0001030000
H   	   -2.4972440000 	    0.6743350000 	   -0.8175270000
H   	   -2.4894870000 	    0.7043110000 	    0.7905420000
H   	   -1.3032710000 	   -1.4066210000 	   -0.8559250000
H   	   -1.3029330000 	   -1.3835470000 	    0.8898380000
H   	    1.3031940000 	   -1.3836770000 	   -0.8904330000
H   	    1.3033810000 	   -1.4073180000 	    0.8554650000
H   	    2.4971710000 	    0.6724580000 	    0.8187970000
H   	    2.4865400000 	    0.7071040000 	   -0.7886740000
