18
tauto -472.46466828
C   	    3.1793040000 	    0.2032740000 	    0.8480820000
C   	    2.6194020000 	   -0.2888860000 	   -0.4742210000
O   	    1.3304590000 	   -0.8890990000 	   -0.3082880000
C   	    0.2884360000 	   -0.0442710000 	   -0.2289420000
N   	   -0.8716480000 	   -0.7541540000 	   -0.0695050000
C   	   -1.9961730000 	   -0.0977220000 	    0.0661570000
N   	   -2.1833710000 	    1.2380480000 	   -0.0506680000
N   	   -3.1141630000 	   -0.8347310000 	    0.3588680000
O   	    0.4403960000 	    1.1755830000 	   -0.3058230000
H   	    4.1965750000 	    0.5847350000 	    0.7077440000
H   	    3.2124640000 	   -0.6115320000 	    1.5780840000
H   	    2.5583730000 	    1.0110980000 	    1.2439850000
H   	    3.2377220000 	   -1.0873480000 	   -0.8928820000
H   	    2.5480180000 	    0.5278740000 	   -1.1977430000
H   	   -1.3237520000 	    1.7763440000 	   -0.1223730000
H   	   -2.9914510000 	    1.6552980000 	    0.3835730000
H   	   -2.9665750000 	   -1.8292930000 	    0.2635810000
H   	   -3.9997460000 	   -0.4975510000 	    0.0115970000
