29
tauto -725.246273572
C   	    0.0670980000 	   -0.9315170000 	    0.1121500000
O   	    1.1969130000 	   -1.3613470000 	   -0.6319190000
C   	    2.3614670000 	   -0.7234740000 	   -0.2966880000
C   	    3.5691890000 	   -1.3984830000 	   -0.3800990000
C   	    4.7552600000 	   -0.7274050000 	   -0.0931510000
C   	    4.7228370000 	    0.6106350000 	    0.2881070000
C   	    3.5091460000 	    1.2854910000 	    0.3793290000
C   	    2.3223080000 	    0.6238320000 	    0.0782840000
N   	    1.0773530000 	    1.2575770000 	    0.1064510000
C   	   -0.1124600000 	    0.5773160000 	    0.0507570000
N   	   -1.2030250000 	    1.2361780000 	   -0.0247450000
C   	   -2.4442160000 	    0.5755190000 	    0.0190340000
C   	   -3.3500710000 	    0.7693620000 	   -1.0298240000
C   	   -4.6010330000 	    0.1668550000 	   -0.9989090000
C   	   -4.9793560000 	   -0.6233380000 	    0.0851490000
C   	   -4.0920850000 	   -0.8020770000 	    1.1409090000
C   	   -2.8342700000 	   -0.2068050000 	    1.1115720000
H   	    0.1711970000 	   -1.2455190000 	    1.1615160000
H   	   -0.7999050000 	   -1.4324240000 	   -0.3188250000
H   	    3.5603440000 	   -2.4420250000 	   -0.6807030000
H   	    5.7026910000 	   -1.2540110000 	   -0.1625240000
H   	    5.6454280000 	    1.1358150000 	    0.5185680000
H   	    3.4772290000 	    2.3315250000 	    0.6763300000
H   	    1.0185900000 	    2.2658540000 	    0.1205670000
H   	   -3.0510700000 	    1.3974160000 	   -1.8646100000
H   	   -5.2901700000 	    0.3200360000 	   -1.8259540000
H   	   -5.9614150000 	   -1.0878060000 	    0.1092330000
H   	   -4.3791730000 	   -1.4056150000 	    1.9986810000
H   	   -2.1522260000 	   -0.3242250000 	    1.9514020000
