18
tauto -419.054725803
C   	    1.3023670000 	    1.4002540000 	    0.2254010000
N   	    2.4394590000 	    0.6144990000 	   -0.2494430000
C   	    2.3167960000 	   -0.6470190000 	   -0.2024920000
N   	    1.1837120000 	   -1.3463270000 	    0.1936990000
C   	   -0.0551790000 	   -0.6888770000 	    0.1176990000
C   	   -0.0356640000 	    0.7080760000 	    0.0827400000
C   	   -1.2393520000 	    1.3895000000 	   -0.0527050000
C   	   -2.4493770000 	    0.7027900000 	   -0.1167540000
C   	   -2.4532290000 	   -0.6877580000 	   -0.0610290000
C   	   -1.2569780000 	   -1.3887610000 	    0.0453920000
H   	    1.2936080000 	    2.3570120000 	   -0.3088360000
H   	    1.4850940000 	    1.6406410000 	    1.2842090000
H   	    3.1584910000 	   -1.2790490000 	   -0.4894840000
H   	    1.1818450000 	   -2.3407540000 	    0.0213920000
H   	   -1.2280730000 	    2.4772250000 	   -0.0979740000
H   	   -3.3836020000 	    1.2495800000 	   -0.2089050000
H   	   -3.3914710000 	   -1.2341560000 	   -0.1109390000
H   	   -1.2543880000 	   -2.4769320000 	    0.0712360000
