25
tauto -572.857066438
C   	    4.3325440000 	    0.2099410000 	    0.8331230000
C   	    3.6149320000 	   -0.1629070000 	   -0.4615760000
N   	    2.4157300000 	   -0.9295100000 	   -0.1771840000
C   	    1.2697550000 	   -0.3811050000 	   -0.2202970000
N   	    0.1527190000 	   -1.1511780000 	    0.0312030000
C   	   -1.1462350000 	   -0.6473700000 	    0.0339360000
C   	   -2.2734660000 	   -1.4649670000 	    0.0257100000
C   	   -3.5444030000 	   -0.8992630000 	    0.0750040000
C   	   -3.6977780000 	    0.4826880000 	    0.1218280000
C   	   -2.5740560000 	    1.3062930000 	    0.1153530000
C   	   -1.3095340000 	    0.7416980000 	    0.0758640000
O   	   -0.2011490000 	    1.5458500000 	    0.1320330000
C   	    0.9166200000 	    1.0533520000 	   -0.5893160000
H   	    5.2875660000 	    0.7047330000 	    0.6259410000
H   	    4.5249240000 	   -0.6885700000 	    1.4273720000
H   	    3.7170570000 	    0.8857870000 	    1.4380980000
H   	    4.2711190000 	   -0.7996500000 	   -1.0665840000
H   	    3.4351160000 	    0.7429660000 	   -1.0609290000
H   	    0.3199810000 	   -2.1338750000 	    0.1921190000
H   	   -2.1485370000 	   -2.5450450000 	   -0.0111050000
H   	   -4.4169470000 	   -1.5466830000 	    0.0747220000
H   	   -4.6895240000 	    0.9241310000 	    0.1577810000
H   	   -2.6584660000 	    2.3884450000 	    0.1531840000
H   	    1.7379660000 	    1.7289950000 	   -0.3516690000
H   	    0.7195210000 	    1.1066140000 	   -1.6711000000
