26
tauto -631.793990993
O   	    0.1970270000 	    1.7783490000 	   -0.3518180000
C   	    0.4707870000 	    0.4625410000 	   -0.0942250000
C   	    1.9120950000 	    0.1109840000 	   -0.0355410000
C   	    2.3754420000 	   -1.1283420000 	   -0.4884330000
C   	    3.7282490000 	   -1.4387630000 	   -0.4285120000
C   	    4.6398290000 	   -0.5130360000 	    0.0740310000
C   	    4.1895000000 	    0.7250500000 	    0.5207020000
C   	    2.8349990000 	    1.0360410000 	    0.4651460000
C   	   -0.5083810000 	   -0.4255610000 	    0.1384970000
C   	   -1.9654690000 	   -0.2418920000 	    0.0872260000
N   	   -2.6619450000 	   -1.3690520000 	    0.3241930000
C   	   -3.9904720000 	   -1.3082560000 	    0.2921220000
C   	   -4.7096410000 	   -0.1475120000 	    0.0283830000
C   	   -3.9902330000 	    1.0169740000 	   -0.2129480000
C   	   -2.6034870000 	    0.9778170000 	   -0.1827920000
H   	    0.9733550000 	    2.1745600000 	   -0.7693460000
H   	    1.6682660000 	   -1.8406320000 	   -0.9051880000
H   	    4.0751580000 	   -2.4041270000 	   -0.7878680000
H   	    5.6982690000 	   -0.7561420000 	    0.1159830000
H   	    4.8931620000 	    1.4496120000 	    0.9223440000
H   	    2.4856380000 	    1.9927370000 	    0.8485210000
H   	   -0.2106050000 	   -1.4315170000 	    0.4157800000
H   	   -4.5112070000 	   -2.2448460000 	    0.4895830000
H   	   -5.7955200000 	   -0.1606470000 	    0.0161210000
H   	   -4.5036830000 	    1.9528110000 	   -0.4207780000
H   	   -2.0147490000 	    1.8684860000 	   -0.3618920000
