11
tauto -409.759027155
N   	   -2.1823260000 	   -0.8509270000 	   -0.0776160000
C   	   -1.0563800000 	   -0.0809650000 	    0.0064970000
N   	   -1.2477670000 	    1.2501430000 	    0.0157580000
N   	    0.0682600000 	   -0.7720330000 	    0.0647000000
N   	    1.2651900000 	   -0.0974400000 	    0.0063340000
O   	    2.2467820000 	   -0.8052190000 	   -0.0501820000
O   	    1.3261700000 	    1.1400270000 	    0.0288960000
H   	   -3.0234790000 	   -0.4988320000 	    0.3547080000
H   	   -2.0098910000 	   -1.8378770000 	    0.0527640000
H   	   -2.1254620000 	    1.6184100000 	   -0.3150600000
H   	   -0.4099980000 	    1.8174210000 	   -0.0253460000
