20
tauto -420.260848252
C   	   -1.8373940000 	   -0.0847330000 	    1.4856060000
C   	   -2.0430280000 	    0.0030120000 	   -0.0100980000
N   	   -3.3525990000 	   -0.0465610000 	   -0.4290210000
N   	   -1.1166560000 	    0.0786720000 	   -0.8869590000
C   	    0.2281270000 	    0.0389130000 	   -0.4734220000
C   	    0.9345720000 	    1.2246970000 	   -0.2465650000
C   	    2.2769260000 	    1.1874330000 	    0.1156200000
C   	    2.9376310000 	   -0.0302680000 	    0.2529520000
C   	    2.2416030000 	   -1.2131450000 	    0.0187050000
C   	    0.8992510000 	   -1.1818370000 	   -0.3440020000
H   	   -2.7821390000 	   -0.2066820000 	    2.0217130000
H   	   -1.3317160000 	    0.8156100000 	    1.8478830000
H   	   -1.1897100000 	   -0.9330930000 	    1.7239720000
H   	   -4.0654050000 	    0.2858430000 	    0.2011460000
H   	   -3.4915200000 	    0.1867740000 	   -1.4024750000
H   	    0.4177180000 	    2.1736850000 	   -0.3684180000
H   	    2.8105490000 	    2.1191540000 	    0.2891260000
H   	    3.9876210000 	   -0.0571090000 	    0.5321290000
H   	    2.7477900000 	   -2.1708210000 	    0.1162660000
H   	    0.3554770000 	   -2.1025710000 	   -0.5422530000
