28
tauto -799.278544521
O   	   -1.1165550000 	    2.5674440000 	   -0.3631580000
C   	   -1.1613190000 	    1.3819180000 	   -0.1963260000
C   	   -2.3780140000 	    0.5649300000 	   -0.1032890000
C   	   -3.6353660000 	    1.1608770000 	   -0.2242960000
C   	   -4.7802880000 	    0.3892180000 	   -0.1335890000
C   	   -4.6615690000 	   -0.9883010000 	    0.0814790000
C   	   -3.4216650000 	   -1.5937970000 	    0.2051940000
C   	   -2.2662230000 	   -0.8108840000 	    0.1119510000
N   	   -1.0055990000 	   -1.3582190000 	    0.2284450000
O   	    0.0414710000 	    0.7018190000 	   -0.0739110000
C   	    0.1708430000 	   -0.6453650000 	    0.1204800000
N   	    1.2777770000 	   -1.2487590000 	    0.1922050000
C   	    2.5276170000 	   -0.5999570000 	    0.1117160000
C   	    3.5316040000 	   -1.2469210000 	   -0.6142840000
C   	    4.8026850000 	   -0.6943290000 	   -0.7091220000
C   	    5.0969060000 	    0.5022660000 	   -0.0611020000
C   	    4.1067640000 	    1.1379030000 	    0.6819480000
C   	    2.8293170000 	    0.5958910000 	    0.7713540000
H   	   -3.6797610000 	    2.2333340000 	   -0.3901040000
H   	   -5.7602980000 	    0.8459990000 	   -0.2284560000
H   	   -5.5567000000 	   -1.6006280000 	    0.1537730000
H   	   -3.3390800000 	   -2.6646270000 	    0.3728140000
H   	   -0.8812510000 	   -2.3511180000 	    0.3602120000
H   	    3.2924580000 	   -2.1878090000 	   -1.1023050000
H   	    5.5693000000 	   -1.2059110000 	   -1.2860310000
H   	    6.0918060000 	    0.9341130000 	   -0.1307440000
H   	    4.3267060000 	    2.0693680000 	    1.1977820000
H   	    2.0644890000 	    1.1013130000 	    1.3523810000
