26
tauto -628.013406063
C   	   -2.9101440000 	    1.3197900000 	    0.2656160000
N   	   -1.8028690000 	    0.4044030000 	    0.0789650000
C   	   -0.4986850000 	    0.9208640000 	   -0.0044590000
C   	   -0.2422090000 	    2.2734600000 	   -0.0836020000
C   	    1.0936880000 	    2.7379630000 	   -0.1073340000
C   	    2.1551860000 	    1.8773070000 	   -0.0607990000
C   	    1.9296040000 	    0.4753640000 	   -0.0061940000
C   	    2.9862070000 	   -0.4720470000 	    0.0242120000
C   	    2.7090100000 	   -1.8145740000 	    0.0619960000
C   	    1.3819600000 	   -2.2906940000 	    0.0650130000
C   	    0.3404900000 	   -1.3897520000 	    0.0358010000
N   	   -0.9830250000 	   -1.7890040000 	    0.0032020000
C   	    0.5949700000 	    0.0060840000 	    0.0119330000
C   	   -2.0833260000 	   -0.9553680000 	   -0.0731710000
N   	   -3.2236150000 	   -1.5087170000 	   -0.2404240000
H   	   -2.6075640000 	    2.1121610000 	    0.9543490000
H   	   -3.7445340000 	    0.7887210000 	    0.7263870000
H   	   -3.2453400000 	    1.7744750000 	   -0.6754730000
H   	   -1.0474390000 	    2.9967180000 	   -0.1416400000
H   	    1.2666230000 	    3.8097240000 	   -0.1652870000
H   	    3.1768020000 	    2.2485030000 	   -0.0738910000
H   	    4.0128930000 	   -0.1152050000 	    0.0130690000
H   	    3.5226200000 	   -2.5352620000 	    0.0839930000
H   	    1.1793680000 	   -3.3585500000 	    0.0840930000
H   	   -1.2123770000 	   -2.7626300000 	   -0.1315130000
H   	   -3.9749950000 	   -0.8358100000 	   -0.3403450000
