25
tauto -647.824867254
O   	   -0.1709890000 	    1.7553590000 	   -0.3645580000
C   	   -0.4582000000 	    0.4479200000 	   -0.0959380000
C   	   -1.9014530000 	    0.1062240000 	   -0.0361390000
C   	   -2.8163540000 	    1.0383320000 	    0.4659260000
C   	   -4.1727020000 	    0.7365090000 	    0.5234520000
C   	   -4.6317350000 	   -0.4985670000 	    0.0770000000
C   	   -3.7277450000 	   -1.4308490000 	   -0.4269690000
C   	   -2.3727740000 	   -1.1301230000 	   -0.4882640000
C   	    0.5159860000 	   -0.4443830000 	    0.1451850000
C   	    1.9696790000 	   -0.2606250000 	    0.0923850000
N   	    2.6854060000 	   -1.3693200000 	    0.3435850000
C   	    4.0095990000 	   -1.2569050000 	    0.3001500000
C   	    4.6421600000 	   -0.0545240000 	    0.0088360000
N   	    3.9479390000 	    1.0565290000 	   -0.2391930000
C   	    2.6228310000 	    0.9522270000 	   -0.1940960000
H   	   -0.9464230000 	    2.1642050000 	   -0.7717840000
H   	   -2.4600410000 	    1.9926200000 	    0.8490080000
H   	   -4.8708820000 	    1.4656400000 	    0.9261210000
H   	   -5.6917310000 	   -0.7343070000 	    0.1203760000
H   	   -4.0821160000 	   -2.3935210000 	   -0.7860310000
H   	   -1.6711050000 	   -1.8473240000 	   -0.9059490000
H   	    0.2158200000 	   -1.4466190000 	    0.4328910000
H   	    4.5858670000 	   -2.1575360000 	    0.5053410000
H   	    5.7272490000 	    0.0186830000 	   -0.0245790000
H   	    2.0521170000 	    1.8534070000 	   -0.3888390000
