19
tauto -473.440956646
O   	    1.1194160000 	    2.2651830000 	    0.0096810000
C   	    0.9732180000 	    1.0596210000 	   -0.0467010000
C   	    2.1136310000 	    0.0714520000 	   -0.2275290000
C   	    1.7874560000 	   -1.3006560000 	    0.3548500000
N   	    0.5135410000 	   -1.7506240000 	   -0.1904500000
N   	   -0.2636030000 	    0.4731630000 	    0.0233240000
C   	   -0.5532220000 	   -0.8977870000 	   -0.0703900000
N   	   -1.7869610000 	   -1.2140030000 	   -0.0623120000
C   	   -2.5485110000 	    0.0376110000 	   -0.0116470000
C   	   -1.5245570000 	    1.1971010000 	    0.1294800000
H   	    3.0035740000 	    0.5043130000 	    0.2352820000
H   	    2.3040570000 	   -0.0194450000 	   -1.3037590000
H   	    1.7670540000 	   -1.2453790000 	    1.4545640000
H   	    2.5569090000 	   -2.0236850000 	    0.0719030000
H   	    0.2566220000 	   -2.7151950000 	   -0.0337820000
H   	   -3.2481220000 	    0.0122260000 	    0.8302060000
H   	   -3.1459240000 	    0.1406700000 	   -0.9248220000
H   	   -1.5834890000 	    1.7132140000 	    1.0928780000
H   	   -1.5949340000 	    1.9480110000 	   -0.6622350000
