18
tauto -456.168534848
C   	    3.4493280000 	   -0.6071640000 	    0.0001010000
C   	    2.1277690000 	    0.1329530000 	   -0.0000390000
N   	    1.0470360000 	   -0.7323300000 	   -0.0000300000
C   	   -0.1791240000 	   -0.2661180000 	    0.0000050000
N   	   -1.1501400000 	   -1.2487100000 	   -0.0000190000
C   	   -2.4928180000 	   -1.0390960000 	   -0.0000300000
C   	   -2.9865480000 	    0.2255470000 	    0.0000020000
C   	   -2.0481490000 	    1.2962220000 	    0.0000710000
C   	   -0.7023450000 	    1.0786120000 	    0.0000660000
O   	    2.0933890000 	    1.3575920000 	   -0.0001500000
H   	    3.5125100000 	   -1.2553870000 	   -0.8799470000
H   	    3.5126130000 	   -1.2547920000 	    0.8805830000
H   	    4.2751720000 	    0.1060980000 	   -0.0001670000
H   	   -0.7723050000 	   -2.1885260000 	   -0.0001030000
H   	   -3.1104090000 	   -1.9308240000 	   -0.0000770000
H   	   -4.0554350000 	    0.4019790000 	   -0.0000220000
H   	   -2.4159840000 	    2.3195650000 	    0.0001210000
H   	    0.0197710000 	    1.8827030000 	    0.0001020000
