13
tauto -303.535711364
N   	    2.3261480000 	    0.1423370000 	   -0.0001200000
C   	    1.0452660000 	    0.0686590000 	   -0.0002470000
N   	    0.3039280000 	   -1.1216670000 	    0.0001620000
C   	   -1.0672660000 	   -1.1896050000 	    0.0000040000
C   	   -1.8209890000 	   -0.0704620000 	   -0.0001690000
C   	   -1.1385500000 	    1.1977300000 	    0.0000730000
C   	    0.2098890000 	    1.2652590000 	    0.0001720000
H   	    2.7543810000 	   -0.7851260000 	   -0.0000890000
H   	    0.8278260000 	   -1.9847810000 	    0.0007700000
H   	   -1.4834610000 	   -2.1918740000 	   -0.0000060000
H   	   -2.9024480000 	   -0.1338900000 	   -0.0004290000
H   	   -1.7238100000 	    2.1140300000 	    0.0001520000
H   	    0.7468850000 	    2.2074690000 	    0.0003140000
