25
tauto -610.767985398
N   	   -1.5526250000 	    2.8525590000 	   -0.0000100000
C   	   -0.8023810000 	    1.8156210000 	   -0.0000110000
N   	    0.5823180000 	    1.8425870000 	    0.0000120000
C   	    1.4237860000 	    0.7374290000 	    0.0000080000
C   	    2.8095540000 	    0.9285160000 	    0.0000110000
C   	    3.6611880000 	   -0.1626460000 	    0.0000010000
C   	    3.1383610000 	   -1.4558890000 	   -0.0000110000
C   	    1.7648850000 	   -1.6388690000 	   -0.0000120000
C   	    0.8776240000 	   -0.5556850000 	   -0.0000020000
C   	   -0.5908320000 	   -0.6947330000 	    0.0000030000
C   	   -1.3960650000 	    0.4559020000 	   -0.0000030000
C   	   -2.7902700000 	    0.3455890000 	   -0.0000040000
C   	   -3.3965260000 	   -0.8972230000 	    0.0000000000
C   	   -2.6054770000 	   -2.0481320000 	    0.0000080000
C   	   -1.2253320000 	   -1.9464470000 	    0.0000090000
H   	   -1.0030990000 	    3.7127730000 	    0.0000020000
H   	    1.0187850000 	    2.7535260000 	    0.0000000000
H   	    3.2098190000 	    1.9405630000 	    0.0000220000
H   	    4.7364470000 	   -0.0050130000 	    0.0000040000
H   	    3.8012990000 	   -2.3161840000 	   -0.0000210000
H   	    1.3730910000 	   -2.6515740000 	   -0.0000240000
H   	   -3.3701000000 	    1.2631920000 	   -0.0000080000
H   	   -4.4802030000 	   -0.9768670000 	   -0.0000050000
H   	   -3.0713480000 	   -3.0303450000 	    0.0000120000
H   	   -0.6336360000 	   -2.8566940000 	    0.0000200000
