19
tauto -457.152926485
N   	    1.6461250000 	    2.1460840000 	    0.0000970000
C   	    1.3459450000 	    0.9008370000 	    0.0002790000
N   	    2.2728850000 	   -0.1396660000 	   -0.0004810000
C   	    1.9496300000 	   -1.4824120000 	   -0.0000060000
C   	    0.6741970000 	   -1.8987410000 	    0.0001140000
C   	   -0.3916660000 	   -0.9129610000 	    0.0000080000
C   	   -0.0662200000 	    0.4553720000 	   -0.0000390000
C   	   -1.0817470000 	    1.4177790000 	   -0.0000620000
C   	   -2.4103320000 	    1.0326200000 	   -0.0000470000
C   	   -2.7414710000 	   -0.3273410000 	    0.0000050000
C   	   -1.7454580000 	   -1.2864160000 	    0.0000340000
H   	    2.6568630000 	    2.2885780000 	   -0.0003100000
H   	    3.2478460000 	    0.1194040000 	    0.0013690000
H   	    2.7971880000 	   -2.1598360000 	   -0.0001790000
H   	    0.4402970000 	   -2.9578050000 	    0.0001320000
H   	   -0.7917590000 	    2.4640210000 	   -0.0000620000
H   	   -3.1949320000 	    1.7843480000 	   -0.0000370000
H   	   -3.7852260000 	   -0.6319750000 	   -0.0000160000
H   	   -2.0006150000 	   -2.3440790000 	    0.0000790000
