12
tauto -319.56512704
N   	    2.2993220000 	   -0.1332330000 	    0.0002510000
C   	    1.0241570000 	   -0.0297150000 	    0.0001370000
N   	    0.2724230000 	    1.1424460000 	   -0.0005840000
C   	   -1.1041410000 	    1.1368670000 	    0.0000500000
C   	   -1.7724840000 	   -0.0314940000 	    0.0002210000
N   	   -1.1069850000 	   -1.2514920000 	    0.0000250000
C   	    0.1778340000 	   -1.2371480000 	   -0.0002180000
H   	    2.7544800000 	    0.7812490000 	    0.0001520000
H   	    0.7642000000 	    2.0244030000 	    0.0009230000
H   	   -1.5896190000 	    2.1064360000 	    0.0000300000
H   	   -2.8555670000 	   -0.0662810000 	    0.0004640000
H   	    0.7209930000 	   -2.1809120000 	   -0.0005570000
