17
tauto -489.173539787
N   	   -1.7878440000 	    2.0581380000 	    0.0002140000
C   	   -1.3867430000 	    0.8513230000 	    0.0000320000
N   	   -2.3395280000 	   -0.2190840000 	   -0.0003460000
N   	   -1.9829920000 	   -1.4227790000 	   -0.0001810000
N   	   -0.6836160000 	   -1.7500950000 	    0.0001790000
C   	    0.3703690000 	   -0.8491510000 	    0.0001580000
C   	    0.0404770000 	    0.5039600000 	    0.0000890000
C   	    1.0601590000 	    1.4584370000 	   -0.0000550000
C   	    2.3849190000 	    1.0561600000 	   -0.0001070000
C   	    2.7016020000 	   -0.3080170000 	   -0.0000640000
C   	    1.7040610000 	   -1.2680280000 	    0.0000420000
H   	   -2.8104080000 	    2.0610200000 	    0.0002730000
H   	   -0.5274450000 	   -2.7461240000 	    0.0005520000
H   	    0.7781590000 	    2.5071490000 	   -0.0001290000
H   	    3.1797010000 	    1.7962340000 	   -0.0001630000
H   	    3.7421550000 	   -0.6215600000 	   -0.0001560000
H   	    1.9466290000 	   -2.3280730000 	    0.0000030000
