17
tauto -489.180398705
N   	    1.7935820000 	    2.0564760000 	   -0.0008840000
C   	    1.3826280000 	    0.8495390000 	    0.0000160000
N   	    2.1894780000 	   -0.2888420000 	    0.0011160000
N   	    1.8138330000 	   -1.5931430000 	    0.0000120000
N   	    0.5979580000 	   -1.8892940000 	   -0.0004910000
C   	   -0.3697220000 	   -0.8650600000 	   -0.0001650000
C   	   -0.0390910000 	    0.4908790000 	    0.0000900000
C   	   -1.0450620000 	    1.4602040000 	    0.0002770000
C   	   -2.3713300000 	    1.0652640000 	    0.0002830000
C   	   -2.7055450000 	   -0.2963810000 	    0.0000020000
C   	   -1.7130110000 	   -1.2589220000 	   -0.0002420000
H   	    2.8125710000 	    2.1141180000 	   -0.0008610000
H   	    3.1944090000 	   -0.1876350000 	    0.0006000000
H   	   -0.7567390000 	    2.5068810000 	    0.0004560000
H   	   -3.1585830000 	    1.8141050000 	    0.0005340000
H   	   -3.7501320000 	   -0.5958730000 	   -0.0000840000
H   	   -1.9386950000 	   -2.3211130000 	   -0.0004900000
