18
tauto -473.174303629
N   	    3.3428200000 	   -0.6413670000 	   -0.0000130000
C   	    2.1068260000 	   -0.3197470000 	   -0.0000540000
N   	    1.0114940000 	   -1.1509930000 	   -0.0000370000
C   	   -0.1999420000 	   -0.6330050000 	    0.0000130000
C   	   -1.3430160000 	   -1.5153540000 	    0.0000500000
C   	   -2.6044840000 	   -1.0155620000 	    0.0000200000
C   	   -2.8661580000 	    0.3989450000 	   -0.0000550000
C   	   -1.8290640000 	    1.2715510000 	   -0.0000820000
C   	   -0.4799460000 	    0.7853820000 	    0.0000570000
C   	    0.6238310000 	    1.6078040000 	    0.0001230000
N   	    1.8454150000 	    1.0793540000 	   -0.0000350000
H   	    3.4070140000 	   -1.6571770000 	    0.0000360000
H   	   -1.1432330000 	   -2.5823530000 	    0.0000970000
H   	   -3.4494870000 	   -1.7002970000 	    0.0000580000
H   	   -3.8923440000 	    0.7536180000 	   -0.0000920000
H   	   -1.9980260000 	    2.3468800000 	   -0.0000620000
H   	    0.5535590000 	    2.6929920000 	    0.0001570000
H   	    2.6761250000 	    1.6572900000 	   -0.0000350000
