18
tauto -473.195710137
N   	    3.3056370000 	   -0.7533870000 	   -0.0000700000
C   	    2.1508910000 	   -0.2178140000 	   -0.0000850000
N   	    1.9224130000 	    1.1727080000 	    0.0002830000
C   	    0.7122540000 	    1.6030950000 	    0.0001200000
C   	   -0.4761990000 	    0.7730060000 	   -0.0001470000
C   	   -1.7795400000 	    1.2820760000 	   -0.0001260000
C   	   -2.8639530000 	    0.4240450000 	   -0.0000970000
C   	   -2.6421260000 	   -0.9599950000 	    0.0001790000
C   	   -1.3622010000 	   -1.4862340000 	    0.0001760000
C   	   -0.2649420000 	   -0.6139930000 	   -0.0000690000
N   	    1.0335310000 	   -1.0531270000 	   -0.0003090000
H   	    4.0006550000 	   -0.0092610000 	    0.0002560000
H   	    0.5764020000 	    2.6879470000 	    0.0002560000
H   	   -1.9251710000 	    2.3605860000 	   -0.0002210000
H   	   -3.8768320000 	    0.8147520000 	   -0.0002450000
H   	   -3.4910600000 	   -1.6390150000 	    0.0003010000
H   	   -1.2010920000 	   -2.5614660000 	    0.0003740000
H   	    1.2409290000 	   -2.0420160000 	    0.0002420000
