31
tauto -801.439868535
O   	   -1.5344410000 	   -1.9911790000 	   -0.3560990000
C   	   -1.4680180000 	   -0.6798930000 	   -0.0625500000
C   	   -2.8080160000 	   -0.0196630000 	    0.0045090000
N   	   -3.8178280000 	   -0.8519230000 	   -0.2727050000
C   	   -5.0664330000 	   -0.3869670000 	   -0.2494340000
C   	   -5.3747570000 	    0.9319160000 	    0.0520800000
C   	   -4.3251640000 	    1.7992080000 	    0.3436640000
C   	   -3.0230600000 	    1.3234190000 	    0.3218480000
C   	   -0.3074700000 	   -0.0272970000 	    0.1375440000
C   	    1.0463530000 	   -0.5868740000 	    0.1074110000
C   	    1.2994380000 	   -1.9385150000 	    0.2087710000
C   	    2.6318580000 	   -2.4063680000 	    0.2289130000
N   	    3.6946030000 	   -1.6450260000 	    0.1611020000
C   	    3.4811460000 	   -0.3012870000 	    0.0464960000
C   	    4.6307950000 	    0.5288410000 	   -0.0358810000
C   	    4.5095620000 	    1.8846520000 	   -0.1708380000
C   	    3.2249280000 	    2.4724740000 	   -0.2381840000
C   	    2.0999540000 	    1.6944800000 	   -0.1548550000
C   	    2.1885930000 	    0.2843340000 	    0.0027850000
H   	   -2.4883750000 	   -2.1833130000 	   -0.4814930000
H   	   -5.8486710000 	   -1.1061450000 	   -0.4828350000
H   	   -6.4066620000 	    1.2681830000 	    0.0597370000
H   	   -4.5205200000 	    2.8401630000 	    0.5869190000
H   	   -2.1947390000 	    1.9849870000 	    0.5506920000
H   	   -0.3890390000 	    1.0285620000 	    0.3620950000
H   	    0.4857770000 	   -2.6481520000 	    0.2880600000
H   	    2.8117300000 	   -3.4782000000 	    0.3170210000
H   	    5.5981730000 	    0.0371690000 	    0.0092400000
H   	    5.3949720000 	    2.5119800000 	   -0.2346290000
H   	    3.1299220000 	    3.5480620000 	   -0.3634780000
H   	    1.1272800000 	    2.1700200000 	   -0.2349780000
