11
tauto -285.297847061
N   	   -2.0511520000 	    0.1114900000 	   -0.0001260000
C   	   -0.7942460000 	    0.0554970000 	    0.0000450000
O   	   -0.0700820000 	   -1.1252830000 	    0.0001510000
C   	    1.2706620000 	   -0.7909830000 	   -0.0001100000
C   	    1.5033510000 	    0.5155010000 	   -0.0000370000
C   	    0.1752130000 	    1.2205680000 	    0.0000560000
H   	   -2.4480420000 	   -0.8291880000 	   -0.0000690000
H   	    1.9412520000 	   -1.6401890000 	   -0.0001920000
H   	    2.4755200000 	    0.9891600000 	   -0.0001410000
H   	    0.0099690000 	    1.8494150000 	   -0.8817410000
H   	    0.0101440000 	    1.8491440000 	    0.8820850000
