13
tauto -340.658096465
C   	   -1.9008500000 	   -0.4923420000 	   -0.3985200000
C   	   -0.6646720000 	   -0.3344090000 	    0.4617320000
O   	    0.2536590000 	   -1.4355420000 	    0.2497320000
C   	    1.3969630000 	   -0.8707180000 	   -0.1570930000
N   	    1.4748730000 	    0.3997400000 	   -0.2750870000
C   	    0.1885740000 	    0.8696330000 	    0.0946430000
N   	   -0.2364390000 	    2.0597200000 	    0.1120270000
H   	   -2.4650750000 	   -1.3858170000 	   -0.1174750000
H   	   -1.6229410000 	   -0.5639340000 	   -1.4544930000
H   	   -2.5296720000 	    0.3926250000 	   -0.2657870000
H   	   -0.9151160000 	   -0.3273040000 	    1.5271730000
H   	    2.2019360000 	   -1.5690770000 	   -0.3659910000
H   	    0.5124640000 	    2.6886430000 	   -0.1844350000
