14
tauto -395.766326718
N   	    3.4326190000 	    0.5503540000 	   -0.0008310000
C   	    2.4779230000 	   -0.1176050000 	   -0.0000840000
N   	    1.4188800000 	   -0.9285270000 	    0.0002200000
C   	    0.2392260000 	   -0.3632790000 	    0.0003890000
N   	   -0.8371340000 	   -1.2196610000 	    0.0001450000
C   	   -2.1417480000 	   -0.8256110000 	    0.0000250000
C   	   -2.4620290000 	    0.4921660000 	    0.0000160000
C   	   -1.3930650000 	    1.4375010000 	    0.0000240000
C   	   -0.0933130000 	    1.0371950000 	    0.0001510000
H   	   -0.5965300000 	   -2.2033090000 	    0.0001150000
H   	   -2.8740310000 	   -1.6252360000 	   -0.0000980000
H   	   -3.4983520000 	    0.8068830000 	   -0.0000750000
H   	   -1.6233390000 	    2.4997230000 	    0.0000230000
H   	    0.7297310000 	    1.7445640000 	    0.0001720000
