22
tauto -496.431269697
C   	   -2.8508220000 	   -0.9447780000 	    0.0001400000
C   	   -3.6332510000 	    0.3455300000 	   -0.0001970000
C   	   -2.7711980000 	    1.3636480000 	   -0.0001880000
N   	   -1.4461240000 	    0.9060520000 	    0.0001640000
C   	   -1.4041150000 	   -0.4757530000 	    0.0001290000
N   	   -0.3812530000 	   -1.2365990000 	    0.0000720000
C   	    0.8877630000 	   -0.6190740000 	    0.0000400000
C   	    1.5355790000 	   -0.3262520000 	   -1.2052160000
C   	    2.8024090000 	    0.2484200000 	   -1.2017640000
C   	    3.4422400000 	    0.5400680000 	   -0.0000580000
C   	    2.8023910000 	    0.2486610000 	    1.2016940000
C   	    1.5355550000 	   -0.3260010000 	    1.2052450000
H   	   -3.0409560000 	   -1.5692400000 	   -0.8803480000
H   	   -3.0410690000 	   -1.5687730000 	    0.8809400000
H   	   -4.7119150000 	    0.4227650000 	   -0.0003360000
H   	   -2.9642130000 	    2.4295710000 	   -0.0003500000
H   	   -0.6214830000 	    1.4840650000 	   -0.0003860000
H   	    1.0356660000 	   -0.5661570000 	   -2.1404100000
H   	    3.2937930000 	    0.4668460000 	   -2.1470670000
H   	    4.4331270000 	    0.9863650000 	   -0.0000970000
H   	    3.2937620000 	    0.4672700000 	    2.1469630000
H   	    1.0356280000 	   -0.5656950000 	    2.1404840000
