19
tauto -494.204416975
O   	    3.5448220000 	   -0.7962750000 	   -0.0765170000
N   	    2.8651330000 	    0.4113330000 	    0.1172790000
C   	    1.5055620000 	    0.3102060000 	    0.0343450000
C   	    0.5902440000 	    1.5152960000 	    0.0179880000
N   	    0.9220900000 	   -0.8413620000 	    0.0451840000
C   	   -0.4674110000 	   -0.5718090000 	    0.0244330000
C   	   -0.7399540000 	    0.8037930000 	    0.0034280000
C   	   -2.0422280000 	    1.2675780000 	   -0.0260240000
C   	   -3.0816590000 	    0.3327530000 	   -0.0328560000
C   	   -2.8061520000 	   -1.0328860000 	   -0.0110950000
C   	   -1.4927680000 	   -1.5043390000 	    0.0177480000
H   	    2.8163150000 	   -1.4413510000 	   -0.1909130000
H   	    3.2914860000 	    1.1201880000 	   -0.4683250000
H   	    0.7556680000 	    2.1466600000 	   -0.8633240000
H   	    0.7438020000 	    2.1348310000 	    0.9085680000
H   	   -2.2595950000 	    2.3333150000 	   -0.0433940000
H   	   -4.1128390000 	    0.6750130000 	   -0.0548100000
H   	   -3.6278180000 	   -1.7447330000 	   -0.0162990000
H   	   -1.2699640000 	   -2.5670820000 	    0.0355820000
