16
tauto -454.896614667
N   	   -2.3788820000 	    1.4694970000 	    0.0486300000
C   	   -1.5978640000 	    0.4686570000 	   -0.0132200000
N   	   -1.9518960000 	   -0.9034050000 	   -0.1350070000
O   	   -0.7861820000 	   -1.7117050000 	    0.0110270000
C   	    0.2668560000 	   -0.8495090000 	    0.0038180000
C   	   -0.1353460000 	    0.4750140000 	   -0.0189460000
C   	    0.8007730000 	    1.5028540000 	   -0.0163360000
C   	    2.1454510000 	    1.1569630000 	    0.0001930000
C   	    2.5330780000 	   -0.1911800000 	    0.0153810000
C   	    1.6041990000 	   -1.2254770000 	    0.0142830000
H   	   -3.3585100000 	    1.1832840000 	    0.0203220000
H   	   -2.6072690000 	   -1.2392130000 	    0.5638110000
H   	    0.4708400000 	    2.5376350000 	   -0.0303790000
H   	    2.9062740000 	    1.9318010000 	   -0.0013280000
H   	    3.5918970000 	   -0.4369010000 	    0.0276910000
H   	    1.8987890000 	   -2.2695390000 	    0.0252680000
