16
tauto -454.867323624
N   	    2.4678840000 	    1.2670470000 	   -0.0888890000
C   	    1.6300300000 	    0.3384110000 	    0.0440350000
O   	    1.8755470000 	   -0.9989880000 	   -0.1798640000
N   	    0.6624860000 	   -1.7311520000 	   -0.1824300000
C   	   -0.2742130000 	   -0.9259640000 	    0.1586500000
C   	   -1.7021460000 	   -1.1949570000 	    0.0959000000
C   	   -2.5048270000 	   -0.1315030000 	   -0.0946800000
C   	   -1.9799460000 	    1.2364760000 	   -0.2363990000
C   	   -0.6946610000 	    1.5280810000 	    0.0001850000
C   	    0.2054560000 	    0.4442340000 	    0.5101740000
H   	    3.3677810000 	    0.8993530000 	   -0.4012130000
H   	   -2.0677950000 	   -2.2163420000 	    0.1113690000
H   	   -3.5763790000 	   -0.2781820000 	   -0.2035750000
H   	   -2.6706860000 	    2.0140840000 	   -0.5506400000
H   	   -0.2873490000 	    2.5304930000 	   -0.0967240000
H   	    0.2393100000 	    0.5225640000 	    1.6117390000
