15
tauto -308.559772166
O   	   -2.3218810000 	   -0.1110290000 	   -0.0713000000
C   	   -0.9769440000 	    0.0627340000 	    0.0112860000
C   	   -0.3395670000 	    1.2406820000 	   -0.0623300000
C   	    1.1193450000 	    1.2796230000 	    0.0921190000
C   	    1.8561540000 	    0.1655670000 	    0.0287860000
C   	    1.1960230000 	   -1.1602860000 	   -0.2625880000
C   	   -0.2336400000 	   -1.2155120000 	    0.2850130000
H   	   -2.7381320000 	    0.7545910000 	   -0.1848640000
H   	   -0.8891540000 	    2.1698230000 	   -0.2037170000
H   	    1.5896710000 	    2.2469240000 	    0.2540810000
H   	    2.9381150000 	    0.2049000000 	    0.1276680000
H   	    1.7799280000 	   -1.9900940000 	    0.1497330000
H   	    1.1730600000 	   -1.3103440000 	   -1.3537250000
H   	   -0.2190590000 	   -1.3694030000 	    1.3742860000
H   	   -0.7876050000 	   -2.0550130000 	   -0.1467930000
