20
tauto -457.373548192
N   	   -3.3830830000 	    0.0270960000 	    0.0185790000
C   	   -2.1157890000 	    0.0154530000 	   -0.0067470000
O   	   -1.2912330000 	   -1.0864170000 	    0.0565860000
C   	    0.0201870000 	   -0.6333150000 	    0.0405030000
C   	    1.1875990000 	   -1.5512090000 	    0.0792090000
C   	    2.4279400000 	   -0.7354700000 	   -0.3283300000
C   	    2.4657630000 	    0.6472830000 	    0.3400700000
C   	    1.2774080000 	    1.5324700000 	   -0.0760970000
C   	    0.0420040000 	    0.6974630000 	   -0.0378040000
N   	   -1.2891140000 	    1.1144740000 	   -0.1041740000
H   	   -3.7405260000 	   -0.9208550000 	    0.0989980000
H   	    1.0400480000 	   -2.3934420000 	   -0.6070760000
H   	    1.3151740000 	   -1.9792000000 	    1.0833090000
H   	    2.4242430000 	   -0.6050450000 	   -1.4184870000
H   	    3.3364110000 	   -1.2937810000 	   -0.0773240000
H   	    3.4051460000 	    1.1545110000 	    0.0944610000
H   	    2.4477530000 	    0.5187860000 	    1.4302700000
H   	    1.4321480000 	    1.9397330000 	   -1.0850250000
H   	    1.1918270000 	    2.3920100000 	    0.6007880000
H   	   -1.6476480000 	    2.0515760000 	   -0.0382590000
