19
tauto -548.360664714
C   	    2.9972760000 	    1.0122080000 	    0.4448440000
O   	    1.6475820000 	    0.8743400000 	    0.3286980000
N   	    3.6713390000 	   -0.0122560000 	    0.0925970000
N   	    2.7095800000 	   -0.9004410000 	   -0.3098230000
C   	    1.4398280000 	   -0.4146830000 	   -0.1376220000
N   	    0.3570900000 	   -1.0280190000 	   -0.3461150000
C   	   -0.9111050000 	   -0.4421060000 	   -0.1765140000
C   	   -1.9459010000 	   -1.2833540000 	    0.2461340000
C   	   -3.2353000000 	   -0.7940390000 	    0.4084580000
C   	   -3.5201420000 	    0.5416440000 	    0.1353730000
C   	   -2.4997870000 	    1.3789060000 	   -0.3041290000
C   	   -1.2042510000 	    0.8969220000 	   -0.4609050000
H   	    3.3825690000 	    1.9500880000 	    0.8148600000
H   	    2.9446740000 	   -1.8510590000 	   -0.5385320000
H   	   -1.7130170000 	   -2.3259850000 	    0.4437000000
H   	   -4.0241790000 	   -1.4625310000 	    0.7448650000
H   	   -4.5297140000 	    0.9249390000 	    0.2580040000
H   	   -2.7107900000 	    2.4214200000 	   -0.5304630000
H   	   -0.4199690000 	    1.5604320000 	   -0.8124620000
