26
tauto -628.011946155
C   	   -2.8400650000 	    1.9943740000 	   -0.0300480000
N   	   -2.2549900000 	    0.6799040000 	   -0.0141050000
C   	   -0.8902820000 	    0.4150370000 	   -0.0039510000
C   	    0.1911770000 	    1.2436670000 	    0.0099140000
C   	    1.4946830000 	    0.6597460000 	    0.0058740000
C   	    2.6619400000 	    1.4658160000 	    0.0166430000
C   	    3.9125220000 	    0.9035470000 	    0.0137530000
C   	    4.0569040000 	   -0.5021960000 	    0.0005810000
C   	    2.9470330000 	   -1.3073520000 	   -0.0086310000
C   	    1.6399430000 	   -0.7559860000 	   -0.0061030000
C   	    0.4838200000 	   -1.5939810000 	   -0.0134600000
C   	   -0.7444720000 	   -1.0058500000 	   -0.0113360000
N   	   -2.0287710000 	   -1.5197580000 	   -0.0163800000
C   	   -2.9841100000 	   -0.5133120000 	    0.0103200000
N   	   -4.2368750000 	   -0.7423850000 	    0.0447370000
H   	   -2.2235020000 	    2.6574860000 	   -0.6444900000
H   	   -2.9300180000 	    2.4214460000 	    0.9760980000
H   	   -3.8325140000 	    1.9447130000 	   -0.4863020000
H   	    0.0857760000 	    2.3256230000 	    0.0312800000
H   	    2.5459250000 	    2.5480650000 	    0.0269740000
H   	    4.7955070000 	    1.5374140000 	    0.0214780000
H   	    5.0501820000 	   -0.9435150000 	   -0.0019690000
H   	    3.0544870000 	   -2.3903930000 	   -0.0184860000
H   	    0.5994460000 	   -2.6748910000 	   -0.0201750000
H   	   -2.2976120000 	   -2.4881440000 	    0.0289390000
H   	   -4.7777880000 	    0.1168000000 	    0.0855430000
