26
tauto -628.008134545
C   	   -3.5124170000 	    1.2403560000 	    0.0002640000
N   	   -2.3624600000 	    0.3741920000 	   -0.0017750000
C   	   -1.0176100000 	    0.7436030000 	   -0.0010190000
C   	   -0.4042180000 	    2.0070720000 	   -0.0005680000
C   	    0.9696220000 	    2.0589920000 	    0.0003750000
C   	    1.7617160000 	    0.8792240000 	    0.0004910000
C   	    3.1828450000 	    0.9363830000 	    0.0014910000
C   	    3.9388240000 	   -0.2039760000 	    0.0012020000
C   	    3.3111870000 	   -1.4754800000 	   -0.0002840000
C   	    1.9466160000 	   -1.5732750000 	   -0.0011410000
C   	    1.1399240000 	   -0.4031320000 	   -0.0005880000
C   	   -0.2706580000 	   -0.4205770000 	   -0.0008770000
N   	   -1.1678060000 	   -1.4759020000 	   -0.0031080000
C   	   -2.4750740000 	   -1.0153210000 	   -0.0001410000
N   	   -3.5008310000 	   -1.7780000000 	    0.0032240000
H   	   -3.1807000000 	    2.2800530000 	   -0.0044750000
H   	   -4.1245440000 	    1.0764290000 	    0.8951130000
H   	   -4.1312640000 	    1.0706790000 	   -0.8888150000
H   	   -0.9937970000 	    2.9198560000 	   -0.0006070000
H   	    1.4741110000 	    3.0220810000 	    0.0010330000
H   	    3.6615400000 	    1.9137260000 	    0.0024640000
H   	    5.0236960000 	   -0.1403950000 	    0.0019710000
H   	    3.9201260000 	   -2.3757720000 	   -0.0008450000
H   	    1.4714710000 	   -2.5520620000 	   -0.0027130000
H   	   -0.9648760000 	   -2.4608580000 	    0.0080320000
H   	   -4.3626160000 	   -1.2389900000 	    0.0052220000
