28
tauto -782.225679588
C   	    5.4884930000 	   -0.5816240000 	   -0.0765390000
O   	    4.2749720000 	    0.1753160000 	   -0.1364980000
C   	    3.1440540000 	   -0.5300450000 	    0.0749740000
C   	    1.9497740000 	    0.3666550000 	   -0.0201980000
O   	    2.1892410000 	    1.6738480000 	   -0.2807580000
C   	    0.7309690000 	   -0.1692040000 	    0.1467780000
C   	   -0.5667600000 	    0.5096500000 	    0.0935460000
C   	   -0.6863210000 	    1.8822030000 	    0.1296560000
C   	   -1.9678420000 	    2.4765320000 	    0.1060610000
N   	   -3.0951780000 	    1.8145500000 	    0.0509740000
C   	   -3.0126530000 	    0.4522440000 	    0.0075300000
C   	   -4.2365060000 	   -0.2653070000 	   -0.0573140000
C   	   -4.2444090000 	   -1.6317800000 	   -0.1136280000
C   	   -3.0218570000 	   -2.3435680000 	   -0.1119190000
C   	   -1.8270740000 	   -1.6763080000 	   -0.0477000000
C   	   -1.7824200000 	   -0.2567670000 	    0.0213290000
O   	    3.1265380000 	   -1.7140590000 	    0.3032610000
H   	    6.2914410000 	    0.1320550000 	   -0.2580430000
H   	    5.4821460000 	   -1.3612790000 	   -0.8413610000
H   	    5.5944800000 	   -1.0433260000 	    0.9075460000
H   	    3.1464860000 	    1.7842360000 	   -0.3860030000
H   	    0.7498240000 	   -1.2338080000 	    0.3478590000
H   	    0.1917100000 	    2.5135530000 	    0.1850640000
H   	   -2.0472510000 	    3.5633210000 	    0.1395870000
H   	   -5.1521070000 	    0.3188080000 	   -0.0623030000
H   	   -5.1849910000 	   -2.1740530000 	   -0.1641960000
H   	   -3.0308800000 	   -3.4291250000 	   -0.1658790000
H   	   -0.9053140000 	   -2.2491590000 	   -0.0625810000
