8
tauto -333.362851745
N   	   -2.0126200000 	    0.1234580000 	    0.0000570000
C   	   -0.7577610000 	    0.0197930000 	   -0.0000600000
O   	    0.0390860000 	   -1.0923780000 	    0.0000030000
N   	    1.3849300000 	   -0.6776550000 	   -0.0000470000
N   	    1.4176610000 	    0.5641590000 	    0.0001900000
N   	    0.1675570000 	    1.0437790000 	   -0.0002670000
H   	   -2.4570180000 	   -0.7902550000 	    0.0002410000
H   	   -0.0118010000 	    2.0343340000 	    0.0005630000
