22
tauto -587.654547665
C   	    4.6397170000 	   -0.0943070000 	   -0.1153750000
N   	    3.4217100000 	   -0.8783580000 	   -0.2304180000
C   	    2.3340650000 	   -0.2765920000 	   -0.0387350000
O   	    2.1379070000 	    1.0420840000 	    0.2752660000
N   	    0.7583430000 	    1.3240440000 	    0.3368950000
C   	    0.1655720000 	    0.2055710000 	    0.0827580000
C   	   -1.2956420000 	    0.0520760000 	    0.0280640000
C   	   -1.8886700000 	   -1.1986830000 	    0.2042970000
C   	   -3.2723710000 	   -1.3258080000 	    0.1495220000
C   	   -4.0656440000 	   -0.2053130000 	   -0.0765870000
C   	   -3.4744390000 	    1.0450920000 	   -0.2455320000
C   	   -2.0933250000 	    1.1767190000 	   -0.1967250000
N   	    1.0579800000 	   -0.8163630000 	   -0.1086770000
H   	    5.4653590000 	   -0.6568710000 	   -0.5590000000
H   	    4.8893380000 	    0.0982230000 	    0.9361350000
H   	    4.5687110000 	    0.8779190000 	   -0.6213230000
H   	   -1.2753980000 	   -2.0734110000 	    0.4095060000
H   	   -3.7307390000 	   -2.3007410000 	    0.2902590000
H   	   -5.1468440000 	   -0.3059780000 	   -0.1203600000
H   	   -4.0926790000 	    1.9209880000 	   -0.4219210000
H   	   -1.6168230000 	    2.1432350000 	   -0.3330590000
H   	    0.8740080000 	   -1.7178280000 	   -0.5170750000
