32
tauto -785.393738938
O   	   -1.4437050000 	    2.0794430000 	   -0.4347620000
C   	   -1.4566640000 	    0.7641270000 	   -0.0747650000
C   	   -2.7978530000 	    0.1304880000 	   -0.0023210000
C   	   -3.7902100000 	    0.4901960000 	   -0.9210460000
C   	   -5.0520460000 	   -0.0913070000 	   -0.8611620000
C   	   -5.3388520000 	   -1.0361010000 	    0.1192010000
C   	   -4.3579790000 	   -1.3965950000 	    1.0398010000
C   	   -3.0975520000 	   -0.8144430000 	    0.9833950000
C   	   -0.3177860000 	    0.0831330000 	    0.1408330000
C   	    1.0573810000 	    0.5981770000 	    0.1414260000
C   	    1.3579270000 	    1.9286360000 	    0.3386640000
C   	    2.7054540000 	    2.3465590000 	    0.3953340000
N   	    3.7403550000 	    1.5538920000 	    0.2749010000
C   	    3.4795220000 	    0.2305820000 	    0.0639760000
C   	    4.5983570000 	   -0.6333730000 	   -0.0769160000
C   	    4.4269220000 	   -1.9704190000 	   -0.3083060000
C   	    3.1215280000 	   -2.5049260000 	   -0.4177010000
C   	    2.0253010000 	   -1.6947130000 	   -0.2798710000
C   	    2.1667930000 	   -0.3034110000 	   -0.0226380000
H   	   -2.3356760000 	    2.4356280000 	   -0.3281950000
H   	   -3.5623620000 	    1.2039800000 	   -1.7105130000
H   	   -5.8095460000 	    0.1887770000 	   -1.5883590000
H   	   -6.3251580000 	   -1.4897020000 	    0.1679400000
H   	   -4.5798950000 	   -2.1264600000 	    1.8138510000
H   	   -2.3416830000 	   -1.0739140000 	    1.7200260000
H   	   -0.4469310000 	   -0.9762560000 	    0.3311180000
H   	    0.5689960000 	    2.6601030000 	    0.4630550000
H   	    2.9231160000 	    3.4022650000 	    0.5602500000
H   	    5.5830350000 	   -0.1822650000 	    0.0039440000
H   	    5.2884910000 	   -2.6243720000 	   -0.4163060000
H   	    2.9882040000 	   -3.5650160000 	   -0.6177710000
H   	    1.0351100000 	   -2.1252160000 	   -0.3926660000
