19
tauto -548.358169658
N   	    3.8792410000 	    0.8949360000 	    0.2478760000
C   	    2.7929630000 	    0.2770610000 	    0.0694260000
O   	    2.5983790000 	   -1.0427010000 	   -0.2291590000
N   	    1.2205120000 	   -1.3271850000 	   -0.3034930000
C   	    0.6244620000 	   -0.2082750000 	   -0.0600940000
C   	   -0.8369430000 	   -0.0534570000 	   -0.0216300000
C   	   -1.4277560000 	    1.1984550000 	   -0.1969300000
C   	   -2.8120390000 	    1.3252360000 	   -0.1592590000
C   	   -3.6081260000 	    0.2032930000 	    0.0488060000
C   	   -3.0190750000 	   -1.0482100000 	    0.2171650000
C   	   -1.6375190000 	   -1.1795500000 	    0.1853860000
N   	    1.5186260000 	    0.8112120000 	    0.1399390000
H   	    4.6697420000 	    0.2637140000 	    0.1466190000
H   	   -0.8131010000 	    2.0754380000 	   -0.3879190000
H   	   -3.2684860000 	    2.3011500000 	   -0.2992310000
H   	   -4.6898090000 	    0.3036870000 	    0.0788220000
H   	   -3.6394260000 	   -1.9253010000 	    0.3794860000
H   	   -1.1629930000 	   -2.1470760000 	    0.3213860000
H   	    1.3325930000 	    1.7299300000 	    0.5066350000
