9
tauto -317.337924984
N   	   -2.0349480000 	    0.0673610000 	    0.0450720000
C   	   -0.7791970000 	   -0.0378920000 	   -0.0317160000
N   	    0.0522970000 	   -1.1828720000 	   -0.0338590000
C   	    1.2356200000 	   -0.7147360000 	    0.0278950000
O   	    1.3828520000 	    0.6180400000 	    0.0446630000
N   	    0.0655030000 	    1.0982140000 	   -0.1569060000
H   	   -2.4467550000 	   -0.8623750000 	    0.0910530000
H   	    2.1629530000 	   -1.2751610000 	    0.0672210000
H   	   -0.0975190000 	    1.8300550000 	    0.5272010000
