15
tauto -392.117436607
C   	   -0.2929070000 	    1.9872980000 	    0.0001180000
N   	    0.3592520000 	    0.6952540000 	   -0.0000970000
N   	    1.7251500000 	    0.6545450000 	   -0.0001470000
N   	    2.0958190000 	   -0.5475910000 	    0.0000420000
N   	    0.9930280000 	   -1.3219550000 	    0.0000710000
C   	   -0.1797050000 	   -0.5878240000 	    0.0000180000
N   	   -1.3425040000 	   -1.1009550000 	    0.0000670000
C   	   -2.5217880000 	   -0.2599670000 	   -0.0000700000
H   	    0.5011220000 	    2.7353060000 	   -0.0012810000
H   	   -0.9067000000 	    2.1196800000 	    0.8942330000
H   	   -0.9089570000 	    2.1187410000 	   -0.8925590000
H   	    1.0615940000 	   -2.3261190000 	    0.0000030000
H   	   -3.4047930000 	   -0.9054780000 	    0.0007170000
H   	   -2.5958340000 	    0.3821960000 	   -0.8899470000
H   	   -2.5952530000 	    0.3835450000 	    0.8888780000
