9
tauto -317.285361678
N   	   -2.0613350000 	    0.1732030000 	    0.0252160000
C   	   -0.7969390000 	    0.0550230000 	   -0.0180670000
N   	    0.0142110000 	   -1.0855360000 	   -0.1227010000
O   	    1.3651270000 	   -0.6633390000 	    0.0086200000
N   	    1.3895810000 	    0.6966490000 	    0.0275070000
C   	    0.1900930000 	    1.1405180000 	   -0.0064720000
H   	   -2.5250010000 	   -0.7353770000 	   -0.0031700000
H   	   -0.1281440000 	   -1.8213750000 	    0.5619870000
H   	   -0.0239910000 	    2.2000040000 	    0.0093020000
