8
tauto -333.315955202
N   	   -2.0245320000 	    0.0904510000 	    0.0307470000
C   	   -0.7690020000 	    0.0140960000 	   -0.0300370000
N   	    0.0692970000 	   -1.1528650000 	   -0.0225530000
N   	    1.2533820000 	   -0.8123670000 	    0.0348560000
O   	    1.3967590000 	    0.5495720000 	    0.0272440000
N   	    0.1118570000 	    1.0923920000 	   -0.1368370000
H   	   -2.4246770000 	   -0.8443360000 	    0.0792230000
H   	   -0.0054200000 	    1.8399120000 	    0.5395610000
