21
tauto -474.649489903
C   	   -3.9222930000 	    0.2166950000 	    0.0307160000
C   	   -2.7341810000 	   -0.7331160000 	    0.0364350000
C   	   -1.3941900000 	   -0.0239130000 	   -0.0176610000
N   	   -0.3268700000 	   -0.8944990000 	   -0.0511980000
C   	    0.8742970000 	   -0.3774370000 	   -0.0375920000
N   	    1.2735830000 	    0.9077930000 	    0.1144400000
C   	    2.7037180000 	    1.0394730000 	   -0.1003080000
C   	    3.1793460000 	   -0.3952540000 	    0.1832560000
N   	    1.9930960000 	   -1.1572690000 	   -0.1783180000
O   	   -1.3332590000 	    1.2074970000 	   -0.0346800000
H   	   -4.8647420000 	   -0.3381030000 	    0.0853310000
H   	   -3.9308810000 	    0.8248690000 	   -0.8786780000
H   	   -3.8747650000 	    0.9058460000 	    0.8788100000
H   	   -2.7704390000 	   -1.4318370000 	   -0.8084640000
H   	   -2.7302600000 	   -1.3665190000 	    0.9329430000
H   	    0.5675010000 	    1.6234300000 	   -0.0160510000
H   	    3.1489550000 	    1.7705310000 	    0.5792650000
H   	    2.9281840000 	    1.3322150000 	   -1.1349960000
H   	    3.4343270000 	   -0.5195370000 	    1.2451830000
H   	    4.0423040000 	   -0.6778740000 	   -0.4247970000
H   	    1.8970360000 	   -2.1338610000 	    0.0553440000
