18
tauto -435.332680785
C   	   -2.3078770000 	    0.8126670000 	    0.1806880000
C   	   -1.4408060000 	   -0.4160600000 	    0.0090700000
N   	   -0.0697440000 	   -0.2716220000 	   -0.0822190000
C   	    0.7968350000 	    0.8395730000 	   -0.0377010000
N   	    0.2978490000 	    2.1286000000 	   -0.0529940000
N   	    2.0389300000 	    0.5721470000 	    0.0582130000
C   	    2.1661380000 	   -0.8795740000 	    0.1764160000
C   	    0.7768420000 	   -1.4663120000 	   -0.1476600000
O   	   -1.9262180000 	   -1.5315940000 	   -0.0518430000
H   	   -1.8949460000 	    1.5198830000 	    0.9026660000
H   	   -3.2890800000 	    0.4646440000 	    0.5051880000
H   	   -2.4358220000 	    1.3277470000 	   -0.7790710000
H   	   -0.4155890000 	    2.3067370000 	   -0.7467890000
H   	    1.0627790000 	    2.7888830000 	   -0.1190040000
H   	    2.4865940000 	   -1.1369260000 	    1.1937710000
H   	    2.9364990000 	   -1.2446750000 	   -0.5093190000
H   	    0.4232570000 	   -2.2096370000 	    0.5693840000
H   	    0.7200110000 	   -1.9095370000 	   -1.1479590000
