21
tauto -474.647084544
C   	    3.3140930000 	    0.7198440000 	    0.0187640000
C   	    2.0482490000 	   -0.1070530000 	   -0.0038430000
N   	    0.9051590000 	    0.6585330000 	   -0.0371100000
C   	   -0.2479290000 	    0.0351380000 	   -0.0225290000
N   	   -1.4325870000 	    0.7016780000 	   -0.1766870000
C   	   -1.5466080000 	    2.1260960000 	    0.0200710000
C   	   -2.5424610000 	   -0.1871720000 	    0.1199240000
C   	   -1.9136880000 	   -1.5696940000 	   -0.1070450000
N   	   -0.5133810000 	   -1.2839640000 	    0.1434320000
O   	    2.1059670000 	   -1.3388140000 	   -0.0025290000
H   	    3.3528980000 	    1.3602780000 	   -0.8680920000
H   	    4.1874920000 	    0.0663820000 	    0.0472890000
H   	    3.3094720000 	    1.3801930000 	    0.8917930000
H   	   -0.5679090000 	    2.5706520000 	   -0.1652990000
H   	   -1.8605250000 	    2.3644530000 	    1.0470180000
H   	   -2.2792520000 	    2.5434860000 	   -0.6784770000
H   	   -3.3941510000 	    0.0062390000 	   -0.5394310000
H   	   -2.8725940000 	   -0.0612840000 	    1.1634000000
H   	   -2.0751580000 	   -1.9135130000 	   -1.1377580000
H   	   -2.3014340000 	   -2.3250300000 	    0.5812200000
H   	    0.2691440000 	   -1.9180260000 	    0.0190680000
