26
tauto -631.785355529
O   	    0.3377390000 	   -1.9023860000 	   -0.9497650000
C   	    0.4881180000 	   -0.7189740000 	   -0.6989220000
C   	    1.8049790000 	   -0.1708000000 	   -0.2436500000
C   	    2.0136940000 	    1.1963970000 	   -0.0568220000
C   	    3.2479930000 	    1.6566820000 	    0.3892580000
C   	    4.2757940000 	    0.7536300000 	    0.6475090000
C   	    4.0715050000 	   -0.6117690000 	    0.4577050000
C   	    2.8396050000 	   -1.0725260000 	    0.0121240000
N   	   -0.5147740000 	    0.2374100000 	   -0.8837670000
C   	   -1.6930330000 	    0.0901760000 	   -0.3992830000
C   	   -2.1031980000 	   -0.9586720000 	    0.5418600000
C   	   -3.3045420000 	   -0.9041400000 	    1.1434480000
C   	   -4.2716560000 	    0.1607030000 	    0.8844760000
C   	   -4.0091240000 	    1.1019450000 	   -0.0273120000
C   	   -2.7435060000 	    1.0935910000 	   -0.8285940000
H   	    1.2072700000 	    1.8905050000 	   -0.2738290000
H   	    3.4100200000 	    2.7219170000 	    0.5322340000
H   	    5.2403150000 	    1.1151130000 	    0.9959960000
H   	    4.8748620000 	   -1.3161370000 	    0.6576190000
H   	    2.6540720000 	   -2.1310260000 	   -0.1457130000
H   	   -1.4019280000 	   -1.7573320000 	    0.7544430000
H   	   -3.5745170000 	   -1.6753560000 	    1.8615910000
H   	   -5.2029970000 	    0.1665000000 	    1.4437380000
H   	   -4.7262800000 	    1.8926830000 	   -0.2355470000
H   	   -2.2873140000 	    2.0893090000 	   -0.8602520000
H   	   -2.9917780000 	    0.8635910000 	   -1.8765720000
