14
tauto -357.94616492
C   	   -2.4457930000 	   -0.7586150000 	    0.0130620000
C   	   -1.1758050000 	    0.0609420000 	   -0.0053090000
N   	   -0.0386780000 	   -0.7137050000 	   -0.0396240000
C   	    1.1384270000 	   -0.1304440000 	   -0.0060760000
N   	    1.3824960000 	    1.1967390000 	   -0.0457300000
N   	    2.2354770000 	   -0.9461480000 	    0.0854070000
O   	   -1.2305300000 	    1.2936960000 	    0.0059450000
H   	   -2.4843380000 	   -1.3979410000 	   -0.8745690000
H   	   -3.3154760000 	   -0.1001550000 	    0.0390700000
H   	   -2.4470150000 	   -1.4199770000 	    0.8852140000
H   	    0.5462830000 	    1.7749480000 	    0.0166120000
H   	    2.2714520000 	    1.5501870000 	    0.2709610000
H   	    2.0186760000 	   -1.9203320000 	   -0.0674390000
H   	    3.0986110000 	   -0.6257960000 	   -0.3278430000
