22
tauto -549.862553933
C   	   -3.8053940000 	    0.4751390000 	    0.8987280000
C   	   -3.3542890000 	   -0.1632560000 	   -0.4025320000
O   	   -2.1330760000 	   -0.8895000000 	   -0.2345770000
C   	   -1.0031970000 	   -0.1603750000 	   -0.2573300000
N   	    0.0832860000 	   -0.9767750000 	   -0.0865720000
C   	    1.2498370000 	   -0.3957020000 	   -0.0254150000
N   	    1.5818310000 	    0.9193780000 	    0.0038750000
C   	    3.0194660000 	    1.0926690000 	   -0.1086700000
C   	    3.5223550000 	   -0.2677550000 	    0.4012030000
N   	    2.4065810000 	   -1.1273530000 	    0.0362780000
O   	   -1.0226250000 	    1.0586980000 	   -0.4263740000
H   	   -4.7795560000 	    0.9579300000 	    0.7643520000
H   	   -3.0841390000 	    1.2325160000 	    1.2169140000
H   	   -3.8988630000 	   -0.2808100000 	    1.6847620000
H   	   -3.2224340000 	    0.5913400000 	   -1.1828620000
H   	   -4.0721410000 	   -0.9135870000 	   -0.7445900000
H   	    0.8727610000 	    1.5795110000 	   -0.2920200000
H   	    3.3749100000 	    1.9263930000 	    0.5020510000
H   	    3.3234470000 	    1.2594970000 	   -1.1510520000
H   	    3.6799810000 	   -0.2431120000 	    1.4887500000
H   	    4.4493880000 	   -0.5803740000 	   -0.0856100000
H   	    2.3276980000 	   -2.0739560000 	    0.3759270000
