17
tauto -505.452893398
C   	   -3.2175120000 	   -0.5637780000 	    0.3656740000
C   	   -1.8796760000 	   -0.0812880000 	   -0.1482390000
N   	   -0.8413640000 	   -0.9282870000 	    0.1756010000
C   	    0.3945740000 	   -0.5510490000 	    0.0416670000
N   	    1.0664870000 	    0.6407660000 	    0.0855550000
C   	    0.5736960000 	    1.9775330000 	    0.3677640000
N   	    2.4084210000 	    0.4385970000 	   -0.0062160000
N   	    2.6287400000 	   -0.7985470000 	   -0.1182590000
N   	    1.4360730000 	   -1.4220810000 	   -0.0948110000
O   	   -1.7798210000 	    0.9274640000 	   -0.8367430000
H   	   -3.4575150000 	   -1.5289190000 	   -0.0917580000
H   	   -3.9925210000 	    0.1634130000 	    0.1195240000
H   	   -3.1743560000 	   -0.7218860000 	    1.4477420000
H   	    0.0374210000 	    1.9749170000 	    1.3205390000
H   	   -0.1055180000 	    2.2936350000 	   -0.4223380000
H   	    1.4500530000 	    2.6223590000 	    0.4377910000
H   	    1.3660020000 	   -2.4248740000 	   -0.1718590000
