15
tauto -396.033054859
N   	   -2.3531590000 	   -0.8530880000 	   -0.0060730000
C   	   -1.0910240000 	   -0.3114380000 	    0.0036570000
N   	   -1.0528940000 	    1.0592380000 	    0.0174690000
C   	    0.2201550000 	    1.7051730000 	   -0.2725980000
C   	    1.3216970000 	    0.8993210000 	    0.3998030000
N   	   -0.0719550000 	   -1.1159970000 	   -0.0214070000
C   	    1.2079230000 	   -0.5759480000 	    0.0180970000
O   	    2.1971540000 	   -1.2474310000 	   -0.1850550000
H   	   -3.0786500000 	   -0.3443620000 	    0.4782390000
H   	   -2.3468890000 	   -1.8481040000 	    0.1706130000
H   	   -1.8769930000 	    1.5166830000 	   -0.3465820000
H   	    0.1886910000 	    2.7306000000 	    0.1075380000
H   	    0.3941240000 	    1.7488440000 	   -1.3582170000
H   	    1.2240190000 	    0.9821660000 	    1.4898090000
H   	    2.3120160000 	    1.2599040000 	    0.1153600000
