19
tauto -440.106079132
C   	   -3.5180740000 	   -0.6233140000 	    0.0000320000
C   	   -2.1403340000 	   -0.0291830000 	   -0.0001270000
O   	   -2.1001690000 	    1.3376300000 	    0.0002320000
C   	   -1.0206520000 	   -0.7648530000 	   -0.0001870000
C   	    0.3832430000 	   -0.3292140000 	   -0.0000820000
N   	    1.2677940000 	   -1.3434400000 	   -0.0000600000
C   	    2.5654850000 	   -1.0493520000 	   -0.0000230000
C   	    3.0699060000 	    0.2463310000 	    0.0001250000
C   	    2.1559030000 	    1.2937780000 	    0.0000430000
C   	    0.7975740000 	    1.0112770000 	   -0.0000680000
H   	   -4.0790980000 	   -0.3032940000 	    0.8878590000
H   	   -3.4758820000 	   -1.7139260000 	   -0.0012740000
H   	   -4.0800990000 	   -0.3012860000 	   -0.8864430000
H   	   -3.0019070000 	    1.6804770000 	    0.0000030000
H   	   -1.1378800000 	   -1.8436180000 	   -0.0002790000
H   	    3.2435110000 	   -1.9025770000 	    0.0001180000
H   	    4.1414430000 	    0.4230010000 	    0.0003300000
H   	    2.4971930000 	    2.3264640000 	    0.0000910000
H   	    0.0612090000 	    1.8049730000 	   -0.0001230000
