27
tauto -740.337082782
C   	   -5.7713620000 	   -0.3296470000 	   -0.1196550000
O   	   -4.5023640000 	   -0.9565380000 	   -0.2449770000
C   	   -3.4472040000 	   -0.1458420000 	   -0.0398740000
N   	   -2.2806610000 	   -0.8310140000 	   -0.1839710000
C   	   -1.1857370000 	   -0.1264020000 	   -0.0099610000
N   	    0.0673080000 	   -0.6484290000 	   -0.1251070000
C   	    1.0360690000 	    0.3365950000 	    0.0723430000
C   	    2.4760530000 	    0.0638020000 	    0.0129010000
C   	    2.9822060000 	   -1.1965610000 	    0.3449500000
C   	    4.3495530000 	   -1.4430220000 	    0.2913540000
C   	    5.2291320000 	   -0.4324930000 	   -0.0842800000
C   	    4.7327510000 	    0.8266680000 	   -0.4122000000
C   	    3.3661310000 	    1.0714230000 	   -0.3728910000
C   	    0.3592030000 	    1.4779940000 	    0.3411220000
N   	   -0.9953410000 	    1.1858410000 	    0.2912000000
O   	   -3.6053240000 	    1.0467830000 	    0.2385250000
H   	   -6.5066570000 	   -1.1158400000 	   -0.2980550000
H   	   -5.8870710000 	    0.4711460000 	   -0.8559080000
H   	   -5.9032700000 	    0.0943470000 	    0.8798800000
H   	    0.2204950000 	   -1.5921920000 	   -0.4438070000
H   	    2.3066300000 	   -1.9839450000 	    0.6726500000
H   	    4.7293200000 	   -2.4271070000 	    0.5531370000
H   	    6.2977550000 	   -0.6254020000 	   -0.1245010000
H   	    5.4129260000 	    1.6187240000 	   -0.7142180000
H   	    2.9776400000 	    2.0451380000 	   -0.6617720000
H   	    0.7259100000 	    2.4593930000 	    0.6008940000
H   	   -1.8120960000 	    1.7739080000 	    0.4256100000
