23
tauto -662.954987675
C   	    4.8801280000 	    0.3922110000 	   -0.0008170000
O   	    3.8162560000 	   -0.5517570000 	   -0.0005840000
C   	    2.5846860000 	   -0.0157680000 	    0.0004960000
N   	    1.6367490000 	   -1.0006880000 	    0.0005340000
C   	    0.3937160000 	   -0.6013260000 	    0.0007360000
N   	   -0.1469390000 	    0.6517450000 	    0.0007990000
C   	   -1.5349920000 	    0.5794120000 	    0.0001180000
C   	   -2.5159830000 	    1.5583500000 	   -0.0002220000
C   	   -3.8439030000 	    1.1345300000 	   -0.0007880000
C   	   -4.1722100000 	   -0.2231290000 	   -0.0009120000
C   	   -3.1849800000 	   -1.2072650000 	   -0.0004810000
C   	   -1.8654650000 	   -0.7832940000 	   -0.0000020000
N   	   -0.6597590000 	   -1.4748570000 	    0.0004920000
O   	    2.4165030000 	    1.2045230000 	    0.0010200000
H   	    4.8384870000 	    1.0278890000 	    0.8881270000
H   	    4.8371610000 	    1.0289830000 	   -0.8889210000
H   	    5.7969920000 	   -0.1989560000 	   -0.0019040000
H   	    0.4800030000 	    1.4497110000 	    0.0007830000
H   	   -2.2591710000 	    2.6135220000 	   -0.0000680000
H   	   -4.6370380000 	    1.8765820000 	   -0.0011920000
H   	   -5.2169350000 	   -0.5205370000 	   -0.0013780000
H   	   -3.4402300000 	   -2.2630560000 	   -0.0005110000
H   	   -0.5176760000 	   -2.4719910000 	    0.0000510000
