28
tauto -815.486197604
C   	    5.7130880000 	   -0.3921890000 	    1.0244590000
C   	    5.2143940000 	    0.0734500000 	   -0.3289550000
O   	    3.8583990000 	    0.5601830000 	   -0.2449020000
C   	    2.8839710000 	   -0.3723690000 	   -0.2584630000
C   	    1.5456540000 	    0.2841580000 	   -0.1614730000
O   	    1.5263630000 	    1.6391540000 	   -0.0855370000
C   	    0.4490480000 	   -0.4864090000 	   -0.1544140000
C   	   -0.9514520000 	   -0.0790870000 	   -0.0704040000
C   	   -1.9165610000 	   -1.0489440000 	   -0.0534670000
N   	   -3.2171140000 	   -0.6766000000 	    0.0237220000
N   	   -4.2648540000 	   -1.5172690000 	    0.0508330000
C   	   -5.3167590000 	   -0.7010610000 	    0.1287840000
C   	   -4.9729890000 	    0.6578110000 	    0.1526560000
C   	   -3.5894240000 	    0.6617600000 	    0.0834710000
N   	   -2.6566950000 	    1.6474730000 	    0.0670410000
C   	   -1.4049650000 	    1.2882710000 	   -0.0056110000
O   	    3.0803500000 	   -1.5608440000 	   -0.3416400000
H   	    6.7631850000 	   -0.6919830000 	    0.9465800000
H   	    5.1341370000 	   -1.2525350000 	    1.3699410000
H   	    5.6381800000 	    0.4107910000 	    1.7639810000
H   	    5.2427790000 	   -0.7336940000 	   -1.0649030000
H   	    5.7847220000 	    0.9267350000 	   -0.7018230000
H   	    2.4449430000 	    1.9477300000 	   -0.1084800000
H   	    0.6445820000 	   -1.5530720000 	   -0.2208200000
H   	   -1.7326370000 	   -2.1174970000 	   -0.0974160000
H   	   -6.3076250000 	   -1.1368290000 	    0.1662170000
H   	   -5.6195450000 	    1.5201600000 	    0.2106520000
H   	   -0.6670100000 	    2.0846780000 	   -0.0179470000
