12
tauto -356.729150212
N   	    2.2817710000 	   -0.5093870000 	    0.0787540000
C   	    0.9716920000 	   -0.1676880000 	   -0.0125130000
N   	    0.6315440000 	    1.1644130000 	   -0.1069410000
C   	   -0.8156970000 	    1.2122950000 	    0.0222950000
N   	    0.0006150000 	   -1.0364090000 	   -0.0056420000
C   	   -1.1773730000 	   -0.2901580000 	    0.0059140000
O   	   -2.3076340000 	   -0.7131190000 	   -0.0046530000
H   	    2.9612970000 	    0.1081990000 	   -0.3388940000
H   	    2.4643280000 	   -1.4968210000 	   -0.0254220000
H   	    1.2005310000 	    1.8349000000 	    0.3903290000
H   	   -1.2947530000 	    1.7339070000 	   -0.8104790000
H   	   -1.1395750000 	    1.6677550000 	    0.9643150000
