34
tauto -782.802177414
C   	   -0.3218910000 	    2.6582340000 	   -0.2256820000
N   	    0.3450180000 	    1.3896870000 	    0.0656930000
C   	   -0.1155620000 	    0.1852190000 	   -0.6166130000
C   	   -1.5599800000 	   -0.0990430000 	   -0.2464530000
C   	   -2.5141570000 	   -0.3299730000 	   -1.2330710000
C   	   -3.8370870000 	   -0.6055120000 	   -0.8894520000
C   	   -4.2129390000 	   -0.6445100000 	    0.4478360000
C   	   -3.2623100000 	   -0.4098880000 	    1.4409750000
C   	   -1.9441170000 	   -0.1412090000 	    1.0961370000
C   	    0.8256050000 	   -0.9622460000 	   -0.2720290000
C   	    0.4171870000 	   -2.2917600000 	   -0.2535190000
C   	    1.3221260000 	   -3.3198850000 	   -0.0052650000
C   	    2.6576450000 	   -3.0137390000 	    0.2345430000
C   	    3.0847930000 	   -1.6920040000 	    0.2312690000
C   	    2.1734390000 	   -0.6671900000 	   -0.0232470000
N   	    2.5897140000 	    0.6630810000 	   -0.0540090000
C   	    1.7023440000 	    1.7058830000 	    0.0295780000
N   	    2.0343880000 	    2.9385870000 	    0.0972210000
C   	    0.7660830000 	    3.6658560000 	    0.1972930000
H   	   -1.2600440000 	    2.7534340000 	    0.3273710000
H   	   -0.5425930000 	    2.7300090000 	   -1.3043970000
H   	   -0.0773880000 	    0.3472440000 	   -1.7119330000
H   	   -2.2228470000 	   -0.2913530000 	   -2.2814210000
H   	   -4.5729430000 	   -0.7830190000 	   -1.6696180000
H   	   -5.2446250000 	   -0.8539890000 	    0.7186840000
H   	   -3.5518110000 	   -0.4378810000 	    2.4885150000
H   	   -1.1973050000 	    0.0465580000 	    1.8641080000
H   	   -0.6289620000 	   -2.5231400000 	   -0.4381820000
H   	    0.9836420000 	   -4.3519510000 	    0.0024620000
H   	    3.3747360000 	   -3.8061040000 	    0.4329150000
H   	    4.1264890000 	   -1.4476240000 	    0.4281950000
H   	    3.5578900000 	    0.8945540000 	    0.1074300000
H   	    0.7758800000 	    4.5598090000 	   -0.4340780000
H   	    0.6089700000 	    3.9945810000 	    1.2337990000
