22
tauto -512.742859109
O   	   -3.3174340000 	   -0.8908520000 	   -0.1109400000
C   	   -2.2066770000 	   -0.4193910000 	    0.0335960000
N   	   -1.0611530000 	   -1.1850390000 	   -0.0568740000
C   	    0.1119290000 	   -0.6063840000 	   -0.0003390000
N   	    1.1907550000 	   -1.4351220000 	    0.0737400000
C   	    2.5640800000 	   -1.0342810000 	   -0.1527900000
C   	    2.7486340000 	    0.3809900000 	    0.3729350000
C   	    1.6794950000 	    1.2807160000 	   -0.2287780000
N   	    0.3508370000 	    0.7428730000 	    0.0258060000
C   	   -0.7767000000 	    1.6096050000 	   -0.2820310000
C   	   -2.0287040000 	    1.0580410000 	    0.3774990000
H   	    0.9291130000 	   -2.4062370000 	   -0.0131360000
H   	    2.8228580000 	   -1.0763300000 	   -1.2222220000
H   	    3.2217530000 	   -1.7325080000 	    0.3741420000
H   	    3.7426370000 	    0.7584020000 	    0.1137600000
H   	    2.6550130000 	    0.3821940000 	    1.4643730000
H   	    1.8469590000 	    1.3999410000 	   -1.3120910000
H   	    1.7252240000 	    2.2801880000 	    0.2179490000
H   	   -0.9147460000 	    1.6817040000 	   -1.3732050000
H   	   -0.5432710000 	    2.6141050000 	    0.0879910000
H   	   -2.9216760000 	    1.6022100000 	    0.0629740000
H   	   -1.9398010000 	    1.1483810000 	    1.4677330000
