23
tauto -625.847317483
O   	    4.1880540000 	   -0.4498520000 	   -0.0275120000
C   	    3.0147950000 	   -0.1565700000 	    0.0421830000
N   	    2.0176860000 	   -1.0991980000 	   -0.1153520000
C   	    0.6621100000 	   -0.8246380000 	   -0.0453810000
N   	   -0.2912070000 	   -1.7045870000 	    0.0062050000
C   	   -1.4475240000 	   -0.9267490000 	    0.0170080000
C   	   -2.7843990000 	   -1.3201980000 	    0.0667780000
C   	   -3.7583210000 	   -0.3307720000 	    0.0629320000
C   	   -3.4193690000 	    1.0302800000 	    0.0121980000
C   	   -2.0933970000 	    1.4434550000 	   -0.0325770000
C   	   -1.1276930000 	    0.4434280000 	   -0.0269800000
N   	    0.2610840000 	    0.4827680000 	   -0.0464740000
C   	    1.1727660000 	    1.5834690000 	   -0.2795900000
C   	    2.5171510000 	    1.2455590000 	    0.3642450000
H   	    2.2935100000 	   -2.0654890000 	   -0.2287830000
H   	   -3.0412710000 	   -2.3746860000 	    0.1053420000
H   	   -4.8071640000 	   -0.6129680000 	    0.0992790000
H   	   -4.2086730000 	    1.7770450000 	    0.0071610000
H   	   -1.8321090000 	    2.4978580000 	   -0.0744430000
H   	    0.7532140000 	    2.4914180000 	    0.1629300000
H   	    1.2876910000 	    1.7548280000 	   -1.3580020000
H   	    2.4270670000 	    1.3065970000 	    1.4561040000
H   	    3.2936560000 	    1.9477480000 	    0.0549530000
