20
tauto -586.528172547
O   	    4.0468180000 	    0.4423570000 	   -0.0007040000
C   	    2.8635010000 	    0.2170610000 	   -0.0004850000
N   	    2.2543300000 	   -1.0263080000 	   -0.0004730000
C   	    0.8740710000 	   -0.9080460000 	    0.0005980000
N   	   -0.1132990000 	   -1.7406340000 	    0.0001790000
C   	   -1.2223130000 	   -0.8815360000 	    0.0002030000
C   	   -2.5783300000 	   -1.1993760000 	   -0.0002190000
C   	   -3.4983970000 	   -0.1583790000 	   -0.0005740000
C   	   -3.0862260000 	    1.1820100000 	   -0.0003960000
C   	   -1.7389120000 	    1.5249570000 	    0.0002520000
C   	   -0.8277480000 	    0.4764740000 	    0.0004820000
N   	    0.5580310000 	    0.4197200000 	    0.0011520000
C   	    1.7266800000 	    1.2626830000 	    0.0000930000
H   	    2.7602280000 	   -1.8982600000 	    0.0012230000
H   	   -2.8929010000 	   -2.2388160000 	   -0.0004100000
H   	   -4.5612300000 	   -0.3848400000 	   -0.0010580000
H   	   -3.8342950000 	    1.9700950000 	   -0.0007460000
H   	   -1.4174310000 	    2.5629310000 	    0.0004830000
H   	    1.8027400000 	    1.8925330000 	    0.8924190000
H   	    1.8009520000 	    1.8929670000 	   -0.8920160000
