19
tauto -473.43931117
O   	   -3.3345690000 	   -0.1507930000 	    0.0069270000
C   	   -2.1257350000 	   -0.1147340000 	   -0.0038160000
C   	   -1.3079440000 	    1.2003060000 	    0.0422130000
N   	   -1.2492430000 	   -1.1891210000 	   -0.0455960000
C   	   -0.0459040000 	   -0.6652000000 	   -0.0584820000
N   	    0.0383160000 	    0.6959690000 	   -0.0984780000
C   	    1.2553610000 	    1.4279060000 	    0.1767490000
C   	    2.4425140000 	    0.6043430000 	   -0.3174800000
C   	    2.3793750000 	   -0.8133480000 	    0.2452240000
N   	    1.0867690000 	   -1.4023250000 	   -0.0674240000
H   	   -1.4631050000 	    1.7133270000 	    1.0003700000
H   	   -1.5953330000 	    1.8723740000 	   -0.7726740000
H   	    1.3533180000 	    1.6393980000 	    1.2539150000
H   	    1.2134170000 	    2.3905270000 	   -0.3442620000
H   	    3.3803070000 	    1.0805590000 	   -0.0153510000
H   	    2.4205800000 	    0.5599520000 	   -1.4118160000
H   	    2.5501320000 	   -0.7925920000 	    1.3322550000
H   	    3.1612820000 	   -1.4346120000 	   -0.2014550000
H   	    0.9390500000 	   -2.3898920000 	    0.0776400000
