16
tauto -454.961042856
O   	   -3.2375420000 	   -0.1342090000 	    0.0000650000
C   	   -2.0292590000 	   -0.1186360000 	   -0.0000830000
C   	   -1.2031880000 	    1.1954320000 	   -0.0000100000
N   	   -1.1623020000 	   -1.1995770000 	   -0.0000170000
C   	    0.0567660000 	   -0.7113680000 	   -0.0000140000
N   	    0.1496160000 	    0.6716620000 	    0.0000020000
C   	    1.3228740000 	    1.3547450000 	    0.0000030000
C   	    2.5037450000 	    0.6800820000 	    0.0000070000
C   	    2.4695890000 	   -0.7460510000 	    0.0000130000
C   	    1.2914660000 	   -1.4307930000 	    0.0000070000
H   	   -1.4093060000 	    1.7891340000 	    0.8947080000
H   	   -1.4092720000 	    1.7891820000 	   -0.8947040000
H   	    1.2444860000 	    2.4373490000 	    0.0000070000
H   	    3.4419950000 	    1.2216750000 	    0.0000070000
H   	    3.4075230000 	   -1.2953130000 	    0.0000250000
H   	    1.2417560000 	   -2.5134140000 	    0.0000080000
