23
tauto -625.829464945
O   	    4.4207620000 	   -0.2569480000 	   -0.1428810000
C   	    3.2183710000 	   -0.1694410000 	   -0.0761810000
C   	    2.4456070000 	    1.1710910000 	   -0.1128920000
N   	    2.3025420000 	   -1.2117770000 	    0.0463180000
C   	    1.1285300000 	   -0.6396710000 	    0.0445610000
N   	    1.0739310000 	    0.7101330000 	   -0.1561950000
C   	   -0.0560270000 	    1.4986550000 	    0.2983600000
C   	   -1.3340310000 	    0.7160010000 	    0.1014010000
C   	   -2.5678550000 	    1.3426510000 	   -0.0345510000
C   	   -3.7387630000 	    0.6015570000 	   -0.1565640000
C   	   -3.6737260000 	   -0.7887960000 	   -0.1518330000
C   	   -2.4489720000 	   -1.4333100000 	   -0.0338930000
C   	   -1.2825760000 	   -0.6821100000 	    0.0931830000
N   	   -0.0359230000 	   -1.3111910000 	    0.2180590000
H   	    2.7211310000 	    1.7645540000 	   -0.9894600000
H   	    2.6521060000 	    1.7539560000 	    0.7950750000
H   	   -0.0895330000 	    2.4293470000 	   -0.2785310000
H   	    0.0690180000 	    1.7766960000 	    1.3593610000
H   	   -2.6103270000 	    2.4302090000 	   -0.0387750000
H   	   -4.6950240000 	    1.1060790000 	   -0.2579750000
H   	   -4.5810850000 	   -1.3784990000 	   -0.2490420000
H   	   -2.3921420000 	   -2.5194720000 	   -0.0437330000
H   	    0.0325660000 	   -2.3171960000 	    0.2593030000
