19
tauto -473.434153735
O   	    3.0400120000 	   -0.8262360000 	   -0.0971490000
C   	    1.9125940000 	   -0.3916020000 	    0.0106460000
N   	    0.7958350000 	   -1.2149000000 	   -0.0817720000
C   	   -0.3651630000 	   -0.6424970000 	   -0.0105460000
N   	   -1.5444500000 	   -1.3238650000 	   -0.1127970000
C   	   -2.6651780000 	   -0.4515990000 	    0.1981190000
C   	   -2.0616490000 	    0.9155720000 	   -0.1504710000
N   	   -0.6564280000 	    0.6923160000 	    0.1470170000
C   	    0.3799800000 	    1.6297540000 	   -0.2369520000
C   	    1.6979190000 	    1.0978750000 	    0.3137740000
H   	   -1.5381300000 	   -2.3075170000 	    0.1103090000
H   	   -2.9397830000 	   -0.4984150000 	    1.2611020000
H   	   -3.5430590000 	   -0.6895570000 	   -0.4077640000
H   	   -2.4729210000 	    1.7306930000 	    0.4517770000
H   	   -2.2072470000 	    1.1511600000 	   -1.2164510000
H   	    0.1432890000 	    2.6154290000 	    0.1774640000
H   	    0.4232180000 	    1.7267410000 	   -1.3346280000
H   	    1.7071240000 	    1.2116640000 	    1.4053630000
H   	    2.5516900000 	    1.6498170000 	   -0.0845390000
