28
tauto -558.041202738
C   	    3.1851390000 	   -0.4866990000 	    1.2558530000
C   	    2.5524870000 	    0.1362870000 	   -0.0000410000
C   	    2.8097440000 	    1.6446460000 	   -0.0001040000
C   	    3.1851040000 	   -0.4868030000 	   -1.2559050000
C   	    1.0691860000 	   -0.1995190000 	    0.0000300000
O   	    0.8566790000 	   -1.5209630000 	    0.0002600000
C   	    0.0641620000 	    0.7112810000 	   -0.0000070000
C   	   -1.3531060000 	    0.3723250000 	    0.0000210000
N   	   -1.7036660000 	   -0.9298290000 	   -0.0001100000
C   	   -2.9987020000 	   -1.2572160000 	   -0.0001490000
C   	   -4.0227580000 	   -0.3258920000 	   -0.0000450000
C   	   -3.6723700000 	    1.0256500000 	    0.0000700000
C   	   -2.3365430000 	    1.3781590000 	    0.0000890000
H   	    4.2653570000 	   -0.2992640000 	    1.2641690000
H   	    3.0188010000 	   -1.5669900000 	    1.2824290000
H   	    2.7560070000 	   -0.0508790000 	    2.1655970000
H   	    3.8894670000 	    1.8310760000 	   -0.0002520000
H   	    2.3877230000 	    2.1262150000 	    0.8891490000
H   	    2.3874570000 	    2.1261850000 	   -0.8892500000
H   	    4.2653160000 	   -0.2993330000 	   -1.2642910000
H   	    2.7559210000 	   -0.0510840000 	   -2.1656720000
H   	    3.0187980000 	   -1.5670970000 	   -1.2823800000
H   	   -0.1277180000 	   -1.6574800000 	    0.0005070000
H   	    0.3096350000 	    1.7662140000 	   -0.0001140000
H   	   -3.2152990000 	   -2.3238570000 	   -0.0002690000
H   	   -5.0597650000 	   -0.6458470000 	   -0.0000820000
H   	   -4.4413710000 	    1.7942160000 	    0.0001170000
H   	   -2.0321550000 	    2.4211170000 	    0.0001560000
