13
tauto -340.691761162
N   	   -2.2805210000 	   -0.5734250000 	   -0.0001920000
C   	   -0.9930850000 	   -0.1899310000 	   -0.0000020000
C   	   -0.6339050000 	    1.2842130000 	    0.0000020000
C   	    0.8898420000 	    1.2139380000 	   -0.0000070000
N   	   -0.0145740000 	   -1.0365810000 	    0.0000410000
C   	    1.1833420000 	   -0.2990860000 	    0.0000150000
O   	    2.2903850000 	   -0.7768120000 	   -0.0000050000
H   	   -3.0337060000 	    0.0931590000 	    0.0007070000
H   	   -2.4957770000 	   -1.5584380000 	    0.0003430000
H   	   -1.0514680000 	    1.7786390000 	    0.8839410000
H   	   -1.0515010000 	    1.7786500000 	   -0.8839090000
H   	    1.3489360000 	    1.6688780000 	    0.8815790000
H   	    1.3489360000 	    1.6688450000 	   -0.8816100000
