16
tauto -379.993839839
N   	    2.3329030000 	   -0.9148010000 	    0.0099340000
C   	    1.1061080000 	   -0.3469030000 	    0.0175660000
C   	    1.0875320000 	    1.1610960000 	    0.1556120000
C   	   -0.2351660000 	    1.7215460000 	   -0.3527060000
C   	   -1.3727930000 	    0.9165020000 	    0.2651940000
N   	    0.0762650000 	   -1.1254790000 	   -0.0627600000
C   	   -1.2110180000 	   -0.5816960000 	    0.0194870000
O   	   -2.1865000000 	   -1.2944430000 	   -0.0790310000
H   	    3.1751460000 	   -0.3688620000 	   -0.0546110000
H   	    2.3855390000 	   -1.9168450000 	   -0.0965820000
H   	    1.9441390000 	    1.5942890000 	   -0.3738740000
H   	    1.2167800000 	    1.4002980000 	    1.2203100000
H   	   -0.2731330000 	    1.6366860000 	   -1.4458800000
H   	   -0.3220000000 	    2.7853050000 	   -0.1085270000
H   	   -2.3516340000 	    1.2078990000 	   -0.1226470000
H   	   -1.3949930000 	    1.0754680000 	    1.3529150000
