16
tauto -454.959233955
O   	   -2.1836490000 	    1.5358440000 	    0.0000080000
C   	   -1.5611550000 	    0.5022360000 	   -0.0000170000
N   	   -0.1619790000 	    0.3984610000 	   -0.0000250000
C   	    0.7464730000 	    1.4344110000 	   -0.0000020000
C   	    2.0627400000 	    1.1508170000 	    0.0000120000
C   	    2.4863470000 	   -0.2357090000 	    0.0000080000
C   	    1.6004610000 	   -1.2556940000 	   -0.0000060000
C   	    0.1805740000 	   -0.9672720000 	   -0.0000120000
N   	   -0.8145910000 	   -1.7792880000 	    0.0000050000
C   	   -2.0120380000 	   -0.9532780000 	    0.0000150000
H   	    0.3061230000 	    2.4261560000 	   -0.0000030000
H   	    2.7951350000 	    1.9495160000 	    0.0000240000
H   	    3.5517530000 	   -0.4506520000 	    0.0000150000
H   	    1.8997440000 	   -2.2978730000 	   -0.0000060000
H   	   -2.6339770000 	   -1.1505780000 	    0.8813460000
H   	   -2.6340060000 	   -1.1506000000 	   -0.8812890000
