13
tauto -340.691761163
N   	   -2.2805190000 	   -0.5734230000 	   -0.0001220000
C   	   -0.9930890000 	   -0.1899300000 	   -0.0000020000
C   	   -0.6339010000 	    1.2842150000 	   -0.0000340000
C   	    0.8898450000 	    1.2139380000 	    0.0000350000
N   	   -0.0145740000 	   -1.0365810000 	    0.0000650000
C   	    1.1833360000 	   -0.2990900000 	    0.0000170000
O   	    2.2903820000 	   -0.7768130000 	   -0.0000440000
H   	   -3.0337060000 	    0.0931590000 	    0.0004060000
H   	   -2.4957800000 	   -1.5584350000 	    0.0002170000
H   	   -1.0515160000 	    1.7786750000 	    0.8838600000
H   	   -1.0514500000 	    1.7786190000 	   -0.8839870000
H   	    1.3488860000 	    1.6688300000 	    0.8816730000
H   	    1.3490080000 	    1.6688860000 	   -0.8815100000
