19
tauto -419.303979078
C   	   -1.4746530000 	    1.7480060000 	   -0.5754750000
C   	   -0.6113310000 	    0.7844010000 	    0.2365530000
C   	    0.8425420000 	    0.6568820000 	   -0.2288470000
C   	    1.8849330000 	    1.4140460000 	    0.5811420000
C   	   -1.0524730000 	   -0.6689160000 	    0.1603410000
N   	   -2.3421640000 	   -1.0020180000 	    0.3335870000
N   	   -0.1350210000 	   -1.5569530000 	   -0.0617630000
C   	    1.0788550000 	   -0.8654760000 	   -0.2095350000
O   	    2.1645030000 	   -1.3831640000 	   -0.3176370000
H   	   -1.0422630000 	    2.7534600000 	   -0.5466200000
H   	   -2.4965840000 	    1.8245960000 	   -0.1855960000
H   	   -1.5330500000 	    1.4339880000 	   -1.6234340000
H   	   -0.6366280000 	    1.0818450000 	    1.2952780000
H   	    0.9118230000 	    0.9641720000 	   -1.2824670000
H   	    1.8199350000 	    1.1525280000 	    1.6436570000
H   	    1.7571290000 	    2.4981310000 	    0.4866200000
H   	    2.8861000000 	    1.1463790000 	    0.2323450000
H   	   -3.0492820000 	   -0.3142500000 	    0.5287800000
H   	   -2.6001450000 	   -1.9763980000 	    0.3046900000
