20
tauto -494.49270953
C   	    2.5609900000 	   -1.0963350000 	    0.6382150000
C   	    1.5455340000 	   -0.6640150000 	   -0.4025890000
C   	    1.0862990000 	    0.7656440000 	   -0.2033220000
N   	   -0.2800210000 	    0.7011370000 	   -0.0586290000
C   	   -1.0517390000 	    1.8975880000 	    0.2205070000
O   	    1.7710580000 	    1.7630050000 	   -0.1564350000
O   	    0.3496440000 	   -1.4315220000 	   -0.3100480000
C   	   -0.7390140000 	   -0.6326980000 	   -0.1199310000
N   	   -1.8727220000 	   -1.1601060000 	   -0.0360410000
C   	   -3.1064980000 	   -0.4274180000 	    0.1429240000
H   	    3.4473040000 	   -0.4594440000 	    0.5676130000
H   	    2.8498750000 	   -2.1375970000 	    0.4749920000
H   	    2.1377380000 	   -1.0029040000 	    1.6430100000
H   	    1.9540020000 	   -0.7752800000 	   -1.4144810000
H   	   -0.3256930000 	    2.6924880000 	    0.4049700000
H   	   -1.6757490000 	    1.7611660000 	    1.1059340000
H   	   -1.6762180000 	    2.1795590000 	   -0.6312350000
H   	   -3.9346720000 	   -1.0793450000 	   -0.1490190000
H   	   -3.1822150000 	    0.4870430000 	   -0.4582350000
H   	   -3.2642180000 	   -0.1613660000 	    1.1961810000
