21
tauto -607.587046592
N   	   -3.3095610000 	   -1.4538210000 	   -0.3477800000
C   	   -2.3960480000 	   -0.5056450000 	   -0.1181970000
O   	   -1.3995630000 	   -0.8664660000 	    0.7112240000
C   	   -0.5486890000 	    0.2882900000 	    0.8050500000
C   	    0.8652330000 	   -0.0113450000 	    0.3658190000
C   	    1.2830140000 	   -1.3119690000 	    0.0949230000
C   	    2.5990780000 	   -1.5561410000 	   -0.2889300000
C   	    3.5021640000 	   -0.5050540000 	   -0.4012050000
C   	    3.0836130000 	    0.7957570000 	   -0.1313160000
C   	    1.7712420000 	    1.0452250000 	    0.2516660000
N   	   -2.4133690000 	    0.6960110000 	   -0.6097020000
C   	   -1.2879920000 	    1.3158870000 	   -0.0851470000
O   	   -0.9220870000 	    2.4534770000 	   -0.2559020000
H   	   -3.1999840000 	   -2.3749550000 	    0.0419650000
H   	   -4.0632370000 	   -1.2550730000 	   -0.9843650000
H   	   -0.5723050000 	    0.6288000000 	    1.8460280000
H   	    0.5781730000 	   -2.1329320000 	    0.1850870000
H   	    2.9171090000 	   -2.5741760000 	   -0.4993340000
H   	    4.5297060000 	   -0.6968290000 	   -0.6992720000
H   	    3.7825260000 	    1.6230970000 	   -0.2233290000
H   	    1.4320290000 	    2.0606280000 	    0.4370410000
