15
tauto -396.028636664
C   	   -1.8960790000 	   -1.3271730000 	    0.1497980000
N   	   -0.7024780000 	   -0.6085220000 	   -0.2404480000
C   	    0.6103080000 	   -1.2061580000 	   -0.0815140000
C   	   -0.5223400000 	    0.7373640000 	   -0.0491290000
N   	   -1.5930550000 	    1.5668760000 	    0.0502640000
N   	    0.7073930000 	    1.1712570000 	    0.0534930000
C   	    1.5138220000 	    0.0398720000 	    0.0204520000
O   	    2.7207480000 	   -0.0011750000 	    0.0609420000
H   	   -1.8630940000 	   -2.3269780000 	   -0.2903880000
H   	   -2.7921900000 	   -0.8335990000 	   -0.2364720000
H   	   -1.9906450000 	   -1.4233510000 	    1.2407850000
H   	    0.8924380000 	   -1.8361490000 	   -0.9303190000
H   	    0.6792520000 	   -1.7976160000 	    0.8411500000
H   	   -2.4550670000 	    1.3094980000 	   -0.4041900000
H   	   -1.3539720000 	    2.5468970000 	    0.0110880000
