23
tauto -571.681981836
O   	   -3.4738700000 	    1.8294290000 	   -0.0000690000
C   	   -2.8656300000 	    0.7895120000 	   -0.0000080000
C   	   -3.5152040000 	   -0.6050740000 	    0.0005350000
C   	   -2.3236450000 	   -1.5557400000 	    0.0003020000
N   	   -1.4601460000 	    0.6823920000 	   -0.0004260000
C   	   -1.1597510000 	   -0.5761900000 	   -0.0002200000
N   	    0.0927600000 	   -1.0805720000 	   -0.0006350000
C   	    1.3406950000 	   -0.4134500000 	   -0.0002700000
C   	    2.4836830000 	   -1.2185010000 	   -0.0001410000
C   	    3.7459830000 	   -0.6421700000 	    0.0002030000
C   	    3.8823200000 	    0.7432350000 	    0.0003790000
C   	    2.7415460000 	    1.5382140000 	    0.0001760000
C   	    1.4676570000 	    0.9767040000 	   -0.0001460000
H   	   -4.1541380000 	   -0.7032630000 	   -0.8808770000
H   	   -4.1534460000 	   -0.7028670000 	    0.8824950000
H   	   -2.2805060000 	   -2.2013690000 	   -0.8839760000
H   	   -2.2799790000 	   -2.2011370000 	    0.8847230000
H   	    0.1537400000 	   -2.0886600000 	    0.0001190000
H   	    2.3824210000 	   -2.3030790000 	   -0.0003220000
H   	    4.6253700000 	   -1.2809410000 	    0.0003240000
H   	    4.8691470000 	    1.1975560000 	    0.0006500000
H   	    2.8352880000 	    2.6211350000 	    0.0002920000
H   	    0.5788340000 	    1.5952060000 	   -0.0003030000
