29
tauto -836.571997358
C   	    4.3482470000 	   -1.5823970000 	   -0.5897450000
O   	    3.6554550000 	   -0.3576330000 	   -0.4733560000
C   	    2.3388580000 	   -0.4121120000 	   -0.1372560000
C   	    1.6357920000 	   -1.5817060000 	    0.1386080000
C   	    0.2782540000 	   -1.5345390000 	    0.4524760000
C   	   -0.3925760000 	   -0.3183940000 	    0.4954660000
C   	   -1.8589320000 	   -0.2818250000 	    0.8600420000
O   	   -2.4490980000 	    0.9930570000 	    0.5490690000
C   	   -3.4449090000 	    0.7219420000 	   -0.3127870000
N   	   -4.1312830000 	    1.7891340000 	   -0.7377620000
N   	   -3.6840690000 	   -0.5108170000 	   -0.6433510000
C   	   -2.7457880000 	   -1.2586100000 	    0.0536990000
O   	   -2.6192460000 	   -2.4598660000 	    0.0634730000
C   	    0.3145120000 	    0.8571870000 	    0.2353380000
C   	    1.6625310000 	    0.8208500000 	   -0.0811150000
O   	    2.3029290000 	    1.9924350000 	   -0.3870040000
C   	    3.2590010000 	    2.4097260000 	    0.5768170000
H   	    5.3661400000 	   -1.3258910000 	   -0.8872360000
H   	    3.8968320000 	   -2.2253560000 	   -1.3557910000
H   	    4.3747710000 	   -2.1222550000 	    0.3656900000
H   	    2.1315750000 	   -2.5457900000 	    0.0970780000
H   	   -0.2663550000 	   -2.4560110000 	    0.6354770000
H   	   -2.0084880000 	   -0.4551420000 	    1.9313970000
H   	   -3.7948210000 	    2.7160480000 	   -0.5350710000
H   	   -4.8215350000 	    1.6527800000 	   -1.4578410000
H   	   -0.1761630000 	    1.8248720000 	    0.2608080000
H   	    3.6641710000 	    3.3576610000 	    0.2163760000
H   	    4.0687630000 	    1.6799090000 	    0.6763660000
H   	    2.7823210000 	    2.5662850000 	    1.5538140000
