17
tauto -455.215538768
C   	    1.4719810000 	   -0.8791420000 	    1.2683100000
C   	    0.7492660000 	   -0.4632600000 	    0.0000700000
C   	    1.4718550000 	   -0.8790500000 	   -1.2683050000
O   	   -0.5885040000 	   -1.0322680000 	    0.0000430000
C   	   -1.4191530000 	    0.0199350000 	   -0.0010110000
N   	   -2.7226880000 	   -0.2825760000 	   -0.0087150000
N   	   -0.9311270000 	    1.2264050000 	   -0.0002970000
C   	    0.4453140000 	    1.0486210000 	    0.0001540000
O   	    1.3058060000 	    1.8979530000 	    0.0009870000
H   	    1.6611470000 	   -1.9573140000 	    1.2742750000
H   	    0.8838300000 	   -0.6171930000 	    2.1533680000
H   	    2.4256840000 	   -0.3459070000 	    1.3188090000
H   	    1.6614300000 	   -1.9571490000 	   -1.2740820000
H   	    2.4253290000 	   -0.3454250000 	   -1.3191340000
H   	    0.8832320000 	   -0.6176170000 	   -2.1531750000
H   	   -3.0248160000 	   -1.2412760000 	    0.0331920000
H   	   -3.3931270000 	    0.4669740000 	    0.0262840000
