33
tauto -802.668823378
N   	    0.3205900000 	    0.8731200000 	    2.3188320000
C   	    0.2430630000 	    1.3758560000 	    1.0723420000
C   	    0.0125260000 	    0.4316810000 	   -0.1207920000
C   	    0.0379510000 	    1.4688490000 	   -1.2644810000
C   	   -1.3479660000 	   -0.2689240000 	   -0.0850650000
C   	   -1.6595360000 	   -1.1558870000 	   -1.1241090000
C   	   -2.9012620000 	   -1.7712850000 	   -1.1919320000
C   	   -3.8661790000 	   -1.5064200000 	   -0.2211390000
C   	   -3.5730120000 	   -0.6213100000 	    0.8068280000
C   	   -2.3227200000 	   -0.0053080000 	    0.8757260000
C   	    1.1985640000 	   -0.5471530000 	   -0.1326240000
C   	    1.0692100000 	   -1.8765960000 	    0.2762240000
C   	    2.1786330000 	   -2.7193120000 	    0.3264490000
C   	    3.4368250000 	   -2.2457920000 	   -0.0230890000
C   	    3.5813080000 	   -0.9171800000 	   -0.4143860000
C   	    2.4753980000 	   -0.0777160000 	   -0.4621750000
N   	    0.3767620000 	    2.6375200000 	    0.8258740000
C   	    0.2683010000 	    2.8149670000 	   -0.5644220000
O   	    0.3528520000 	    3.8742450000 	   -1.1345250000
H   	    0.4496970000 	   -0.1188090000 	    2.4483500000
H   	    0.6388810000 	    1.4914300000 	    3.0503420000
H   	   -0.9121640000 	    1.5098700000 	   -1.8031290000
H   	    0.8233920000 	    1.2909120000 	   -2.0033860000
H   	   -0.9125080000 	   -1.3653700000 	   -1.8874550000
H   	   -3.1196590000 	   -2.4570990000 	   -2.0065350000
H   	   -4.8406370000 	   -1.9848160000 	   -0.2727880000
H   	   -4.3193540000 	   -0.3984570000 	    1.5650330000
H   	   -2.1191080000 	    0.6869150000 	    1.6874430000
H   	    0.0923030000 	   -2.2703200000 	    0.5432390000
H   	    2.0506360000 	   -3.7529240000 	    0.6380670000
H   	    4.3006000000 	   -2.9044170000 	    0.0119760000
H   	    4.5610620000 	   -0.5287280000 	   -0.6799820000
H   	    2.6159480000 	    0.9625450000 	   -0.7480500000
