20
tauto -494.50407657
C   	   -2.3682600000 	    1.3994690000 	    0.6185260000
C   	   -1.5410030000 	    0.6520110000 	   -0.4045200000
O   	   -0.1519250000 	    1.0316320000 	   -0.3345470000
C   	    0.5204810000 	   -0.1108610000 	   -0.0870340000
N   	    1.8498940000 	   -0.0039310000 	    0.0133290000
C   	    2.6521020000 	   -1.1782360000 	    0.3033990000
C   	    2.5475770000 	    1.2616090000 	   -0.1032570000
N   	   -0.1598950000 	   -1.2205460000 	    0.0342150000
C   	   -1.4849030000 	   -0.8614840000 	   -0.1412820000
O   	   -2.4638100000 	   -1.5695240000 	   -0.0874920000
H   	   -2.3920830000 	    2.4725300000 	    0.4090790000
H   	   -1.9636280000 	    1.2418340000 	    1.6232600000
H   	   -3.3875950000 	    1.0036910000 	    0.5912440000
H   	   -1.8855120000 	    0.8484530000 	   -1.4249410000
H   	    2.0007500000 	   -2.0506480000 	    0.3435860000
H   	    3.1628140000 	   -1.0567000000 	    1.2662060000
H   	    3.4062200000 	   -1.3161820000 	   -0.4801310000
H   	    1.8436100000 	    2.0559750000 	   -0.3451700000
H   	    3.3031760000 	    1.1976960000 	   -0.8948770000
H   	    3.0521720000 	    1.5027810000 	    0.8402520000
