33
tauto -802.6672893
C   	    0.8567100000 	    3.8653600000 	   -1.1302550000
C   	    0.4855470000 	    2.6557600000 	   -0.3381800000
N   	    0.2032120000 	    1.4848340000 	   -0.9740140000
C   	    0.0260520000 	    0.4414010000 	    0.0308350000
C   	   -1.3449890000 	   -0.2233110000 	   -0.0337860000
C   	   -1.6565210000 	   -1.2062780000 	    0.9100190000
C   	   -2.8956010000 	   -1.8317470000 	    0.8854180000
C   	   -3.8371030000 	   -1.4889240000 	   -0.0835760000
C   	   -3.5320100000 	   -0.5107020000 	   -1.0215360000
C   	   -2.2907730000 	    0.1232090000 	   -0.9949190000
C   	    1.1574020000 	   -0.5824230000 	   -0.0721480000
C   	    2.2023800000 	   -0.6473840000 	    0.8480490000
C   	    3.2381940000 	   -1.5629330000 	    0.6685750000
C   	    3.2419230000 	   -2.4169320000 	   -0.4275090000
C   	    2.1962280000 	   -2.3622960000 	   -1.3465650000
C   	    1.1600840000 	   -1.4555530000 	   -1.1651280000
N   	    0.3934310000 	    2.6474300000 	    0.9589020000
C   	    0.1230490000 	    1.3233590000 	    1.3180540000
O   	   -0.0040420000 	    0.8948700000 	    2.4389580000
H   	    0.0873790000 	    4.0852000000 	   -1.8770110000
H   	    1.8025740000 	    3.6981640000 	   -1.6575650000
H   	    0.9689960000 	    4.7157420000 	   -0.4576050000
H   	    0.5886870000 	    1.2748000000 	   -1.8838040000
H   	   -0.9265300000 	   -1.4616380000 	    1.6729190000
H   	   -3.1290900000 	   -2.5906170000 	    1.6276990000
H   	   -4.8053870000 	   -1.9824770000 	   -0.1032770000
H   	   -4.2613760000 	   -0.2325280000 	   -1.7781900000
H   	   -2.0610500000 	    0.8979480000 	   -1.7210240000
H   	    2.2028500000 	   -0.0017980000 	    1.7211330000
H   	    4.0433320000 	   -1.6069100000 	    1.3974290000
H   	    4.0503940000 	   -3.1309060000 	   -0.5619830000
H   	    2.1824490000 	   -3.0358350000 	   -2.1997080000
H   	    0.3291640000 	   -1.4375960000 	   -1.8689930000
