26
tauto -610.990615975
C   	    2.8549270000 	   -0.6964480000 	    1.4904760000
C   	    2.2561440000 	   -0.5078830000 	    0.0976190000
C   	    3.1253000000 	   -1.1373640000 	   -0.9861830000
N   	    0.8677560000 	   -0.9511700000 	    0.0296760000
C   	    0.0775130000 	    0.1535680000 	   -0.0995550000
C   	   -1.3934870000 	    0.0400250000 	   -0.0579050000
C   	   -2.1498650000 	    1.1945870000 	    0.1558880000
C   	   -3.5348520000 	    1.1138550000 	    0.2172750000
C   	   -4.1707900000 	   -0.1156460000 	    0.0592310000
C   	   -3.4207000000 	   -1.2662290000 	   -0.1680760000
C   	   -2.0340970000 	   -1.1892930000 	   -0.2277170000
N   	    0.6938100000 	    1.2902310000 	   -0.2721470000
C   	    2.0598980000 	    1.0013730000 	   -0.1823720000
O   	    2.9757350000 	    1.7807850000 	   -0.2992320000
H   	    3.0052920000 	   -1.7595420000 	    1.7132090000
H   	    2.2079550000 	   -0.2615400000 	    2.2599210000
H   	    3.8241980000 	   -0.1908230000 	    1.5328210000
H   	    3.2929910000 	   -2.2018320000 	   -0.7868480000
H   	    4.0911180000 	   -0.6238900000 	   -1.0116730000
H   	    2.6523200000 	   -1.0360840000 	   -1.9675220000
H   	    0.5458890000 	   -1.7590260000 	    0.5424960000
H   	   -1.6302740000 	    2.1414450000 	    0.2687950000
H   	   -4.1208480000 	    2.0128950000 	    0.3875310000
H   	   -5.2550300000 	   -0.1766320000 	    0.1068070000
H   	   -3.9162950000 	   -2.2231120000 	   -0.3072990000
H   	   -1.4541040000 	   -2.0848270000 	   -0.4391700000
