21
tauto -607.582137558
O   	    3.6339560000 	    1.6825780000 	    0.0023660000
C   	    2.9009150000 	    0.7263650000 	    0.0012090000
N   	    1.5063720000 	    0.7231590000 	    0.0003360000
C   	    1.1645410000 	   -0.5286550000 	   -0.0007580000
N   	   -0.0697780000 	   -1.0573660000 	   -0.0023530000
C   	   -1.3230340000 	   -0.4000710000 	   -0.0010260000
C   	   -2.4579900000 	   -1.2142270000 	    0.0016350000
C   	   -3.7236140000 	   -0.6444940000 	    0.0026350000
C   	   -3.8682030000 	    0.7398120000 	    0.0010130000
C   	   -2.7327200000 	    1.5426540000 	   -0.0016160000
C   	   -1.4559470000 	    0.9884520000 	   -0.0027470000
O   	    2.1358360000 	   -1.4696570000 	   -0.0009790000
C   	    3.3641240000 	   -0.7373270000 	    0.0001020000
H   	   -0.0888940000 	   -2.0675820000 	   -0.0018340000
H   	   -2.3482170000 	   -2.2975180000 	    0.0029700000
H   	   -4.5990400000 	   -1.2884780000 	    0.0046910000
H   	   -4.8577850000 	    1.1879480000 	    0.0018590000
H   	   -2.8333960000 	    2.6248130000 	   -0.0028920000
H   	   -0.5716900000 	    1.6145650000 	   -0.0045490000
H   	    3.9383160000 	   -0.9855700000 	   -0.8956760000
H   	    3.9377780000 	   -0.9871450000 	    0.8957730000
