25
tauto -552.064734386
N   	   -2.9735830000 	   -1.6038220000 	   -0.0179170000
C   	   -2.0251850000 	   -0.6343210000 	   -0.0677470000
N   	   -0.7071920000 	   -0.9863610000 	   -0.2301610000
C   	    0.0737570000 	    0.2379770000 	   -0.0250070000
C   	    0.8659240000 	    0.2146490000 	    1.2892520000
C   	    2.0729630000 	   -0.7253790000 	    1.2294250000
C   	    2.9779770000 	   -0.3924290000 	    0.0407660000
C   	    2.1891650000 	   -0.4051090000 	   -1.2709060000
C   	    0.9924190000 	    0.5453220000 	   -1.2109640000
N   	   -2.3001770000 	    0.6372420000 	    0.0441810000
C   	   -1.0666660000 	    1.2792380000 	    0.0699990000
O   	   -0.8641460000 	    2.4697730000 	    0.1509780000
H   	   -2.7910770000 	   -2.4708270000 	   -0.4999220000
H   	   -3.9227280000 	   -1.2635540000 	   -0.0681240000
H   	   -0.3924530000 	   -1.8517720000 	    0.1883530000
H   	    0.1959090000 	   -0.0553940000 	    2.1158570000
H   	    1.2006290000 	    1.2430430000 	    1.4748320000
H   	    1.7345230000 	   -1.7702890000 	    1.1436290000
H   	    2.6327190000 	   -0.6657130000 	    2.1700150000
H   	    3.8145080000 	   -1.0995990000 	   -0.0088070000
H   	    3.4139470000 	    0.6055580000 	    0.1902560000
H   	    1.8319370000 	   -1.4258550000 	   -1.4733280000
H   	    2.8397890000 	   -0.1314490000 	   -2.1096640000
H   	    0.4092430000 	    0.4958100000 	   -2.1376780000
H   	    1.3307590000 	    1.5827540000 	   -1.0948710000
