11
tauto -339.4579525
O   	    2.2898590000 	   -0.0292040000 	    0.0000230000
C   	    1.0759740000 	   -0.0224890000 	   -0.0000350000
N   	    0.3406360000 	   -1.2344890000 	    0.0000090000
C   	   -0.9403050000 	   -1.1847680000 	    0.0000270000
N   	   -1.6914250000 	   -0.0425450000 	   -0.0002430000
C   	   -1.0538650000 	    1.1786490000 	    0.0000160000
C   	    0.2883960000 	    1.2226140000 	    0.0000220000
H   	   -1.5163040000 	   -2.1109310000 	    0.0001340000
H   	   -2.6975430000 	   -0.1005280000 	    0.0009910000
H   	   -1.6937160000 	    2.0551940000 	    0.0000490000
H   	    0.8230180000 	    2.1650990000 	    0.0000990000
