21
tauto -570.459618359
O   	   -3.3128430000 	   -1.7588790000 	    0.2705930000
C   	   -2.6131020000 	   -0.7739890000 	    0.1386440000
N   	   -1.2060600000 	   -0.8744360000 	    0.1709940000
C   	   -0.4742470000 	    0.1710790000 	   -0.0142520000
C   	    1.0099450000 	    0.0490080000 	    0.0028760000
C   	    1.8415720000 	    1.1272880000 	    0.3140180000
C   	    3.2235400000 	    0.9696730000 	    0.3146700000
C   	    3.7823960000 	   -0.2661450000 	    0.0058280000
C   	    2.9559760000 	   -1.3476110000 	   -0.2916870000
C   	    1.5761080000 	   -1.1936130000 	   -0.2890670000
N   	   -0.9853040000 	    1.4249690000 	   -0.2385900000
C   	   -2.3493100000 	    1.6153240000 	   -0.2600080000
C   	   -3.1710900000 	    0.5735340000 	   -0.0612600000
H   	    1.4221560000 	    2.0898470000 	    0.6012790000
H   	    3.8627260000 	    1.8110590000 	    0.5683560000
H   	    4.8622520000 	   -0.3895120000 	    0.0055210000
H   	    3.3898140000 	   -2.3162490000 	   -0.5244970000
H   	    0.9117350000 	   -2.0247850000 	   -0.5049290000
H   	   -0.3646340000 	    2.1776110000 	   -0.4913100000
H   	   -2.6843000000 	    2.6318250000 	   -0.4400670000
H   	   -4.2481830000 	    0.6902210000 	   -0.0645000000
