30
tauto -763.350201688
O   	    0.0544110000 	    1.6880260000 	    2.0112000000
C   	   -0.0101630000 	    1.8402880000 	    0.8171230000
N   	   -0.1194820000 	    3.0640440000 	    0.1385470000
C   	   -0.1921220000 	    2.7517090000 	   -1.1162490000
N   	   -0.0509360000 	    1.4469870000 	   -1.4516980000
C   	   -0.0035060000 	    0.6662560000 	   -0.2171420000
C   	   -1.2462860000 	   -0.2187720000 	   -0.1146810000
C   	   -2.3016120000 	    0.0638580000 	    0.7508540000
C   	   -3.4386520000 	   -0.7425240000 	    0.7560940000
C   	   -3.5329700000 	   -1.8323840000 	   -0.1005280000
C   	   -2.4775130000 	   -2.1252530000 	   -0.9616530000
C   	   -1.3409610000 	   -1.3270650000 	   -0.9629260000
C   	    1.2844330000 	   -0.1369130000 	   -0.0711780000
C   	    1.4705490000 	   -0.8956430000 	    1.0878440000
C   	    2.6340540000 	   -1.6329610000 	    1.2608910000
C   	    3.6225160000 	   -1.6278420000 	    0.2782550000
C   	    3.4411880000 	   -0.8740250000 	   -0.8744160000
C   	    2.2769110000 	   -0.1273900000 	   -1.0474980000
H   	   -0.3411280000 	    3.4922220000 	   -1.8989610000
H   	   -0.4287070000 	    1.0682710000 	   -2.3076620000
H   	   -2.2353240000 	    0.8992160000 	    1.4412290000
H   	   -4.2518050000 	   -0.5135240000 	    1.4399520000
H   	   -4.4213310000 	   -2.4586420000 	   -0.0929930000
H   	   -2.5356290000 	   -2.9832390000 	   -1.6265470000
H   	   -0.5062400000 	   -1.5775010000 	   -1.6161220000
H   	    0.7051600000 	   -0.8883180000 	    1.8586140000
H   	    2.7713340000 	   -2.2135130000 	    2.1694410000
H   	    4.5318870000 	   -2.2073460000 	    0.4150950000
H   	    4.2080330000 	   -0.8598410000 	   -1.6447580000
H   	    2.1461880000 	    0.4727600000 	   -1.9435650000
