17
tauto -617.53450013
N   	    2.9792150000 	    0.1500770000 	   -0.0572600000
C   	    1.6224220000 	    0.3311910000 	    0.0132030000
N   	    0.9011720000 	   -0.8482520000 	    0.2266560000
C   	   -0.4612280000 	   -0.7301670000 	    0.0597450000
C   	   -1.1001440000 	    0.4760920000 	    0.0010290000
N   	   -2.4620650000 	    0.2688260000 	   -0.0886580000
C   	   -2.6117730000 	   -1.0221970000 	   -0.0835130000
N   	   -1.4088520000 	   -1.7008810000 	    0.0251210000
H   	   -1.2535080000 	   -2.6954060000 	   -0.0263790000
O   	    1.4846340000 	   -2.0648630000 	   -0.1054980000
N   	    1.0916580000 	    1.5018120000 	   -0.0235880000
C   	   -0.3085990000 	    1.7160160000 	    0.0275810000
O   	   -0.7717730000 	    2.8333270000 	    0.0566940000
H   	    3.2918240000 	   -0.6991320000 	   -0.5065630000
H   	    3.4573970000 	    0.9915470000 	   -0.3476910000
H   	   -3.5507290000 	   -1.5553610000 	   -0.1557540000
H   	    1.8001750000 	   -2.4160450000 	    0.7426430000
