20
tauto -532.391086161
C   	    3.3447050000 	   -1.0388170000 	    0.0077450000
C   	    1.9829260000 	   -0.4028590000 	   -0.0047280000
N   	    0.9297060000 	   -1.2754910000 	   -0.0052180000
C   	   -0.3825710000 	   -0.8204630000 	   -0.0024110000
C   	   -0.5777920000 	    0.5613030000 	   -0.0001270000
C   	   -1.8804910000 	    1.0673390000 	    0.0032370000
C   	   -2.9651630000 	    0.2083690000 	    0.0040090000
C   	   -2.7535270000 	   -1.1759010000 	    0.0010460000
C   	   -1.4716310000 	   -1.6984520000 	   -0.0022330000
N   	    1.8734920000 	    0.8828670000 	   -0.0042560000
C   	    0.5985270000 	    1.4723630000 	   -0.0017720000
O   	    0.4661320000 	    2.6802990000 	   -0.0009260000
H   	    3.4555100000 	   -1.7511480000 	   -0.8173820000
H   	    3.5079800000 	   -1.5775870000 	    0.9479890000
H   	    4.0963550000 	   -0.2556730000 	   -0.0871670000
H   	    1.1083640000 	   -2.2688100000 	   -0.0070750000
H   	   -2.0007600000 	    2.1468460000 	    0.0051760000
H   	   -3.9772510000 	    0.6025650000 	    0.0068020000
H   	   -3.6034730000 	   -1.8534920000 	    0.0013400000
H   	   -1.3080540000 	   -2.7740350000 	   -0.0045470000
