9
tauto -209.106361816
C   	   -1.2015030000 	   -0.7504650000 	    0.0000010000
C   	   -0.0601220000 	   -0.0444980000 	   -0.0000010000
N   	    1.2111840000 	   -0.5519370000 	   -0.0000070000
O   	   -0.0015770000 	    1.3171090000 	    0.0000000000
H   	   -1.1877320000 	   -1.8336560000 	    0.0000000000
H   	   -2.1652280000 	   -0.2538420000 	    0.0000010000
H   	    1.3698620000 	   -1.5424790000 	    0.0000180000
H   	    1.9942880000 	    0.0763300000 	    0.0000220000
H   	   -0.9071100000 	    1.6501130000 	    0.0000030000
