14
tauto -378.78949568
C   	    2.4694040000 	   -0.7709540000 	    0.0000320000
C   	    1.1311450000 	   -0.0939740000 	   -0.0000280000
N   	    0.0343550000 	   -0.9040810000 	   -0.0000680000
N   	    1.0467270000 	    1.2004740000 	   -0.0000020000
C   	   -0.2272530000 	    1.7235620000 	    0.0000080000
C   	   -1.3691200000 	    0.9951770000 	   -0.0000010000
C   	   -1.2991360000 	   -0.4533190000 	   -0.0000030000
O   	   -2.2175800000 	   -1.2519050000 	    0.0000400000
H   	    2.5855170000 	   -1.4035150000 	    0.8868970000
H   	    3.2484250000 	   -0.0085860000 	   -0.0005040000
H   	    2.5851740000 	   -1.4044630000 	   -0.8862010000
H   	    0.1430590000 	   -1.9113550000 	   -0.0000770000
H   	   -0.2688330000 	    2.8107160000 	    0.0000070000
H   	   -2.3505090000 	    1.4547410000 	    0.0000070000
