15
tauto -562.175212831
O   	   -2.5885790000 	   -0.9028820000 	   -0.1358060000
N   	   -1.2333390000 	   -0.8121730000 	    0.1125880000
C   	   -0.4184970000 	   -1.9156040000 	   -0.0344100000
N   	    0.8593810000 	   -1.8903200000 	   -0.0532410000
C   	    1.5974490000 	   -0.6628260000 	    0.0075000000
O   	    2.8052860000 	   -0.6712340000 	    0.0363750000
C   	   -0.6140040000 	    0.4068670000 	    0.0343490000
C   	    0.7506460000 	    0.5338390000 	    0.0076520000
N   	    1.0826010000 	    1.8741290000 	   -0.0303920000
C   	   -0.0517750000 	    2.5066700000 	   -0.0297860000
N   	   -1.1441350000 	    1.6557010000 	    0.0242880000
H   	   -2.1205050000 	    1.8972900000 	   -0.0435290000
H   	   -2.9942950000 	   -1.0375830000 	    0.7355710000
H   	   -0.9710230000 	   -2.8521640000 	   -0.1143290000
H   	   -0.1823090000 	    3.5803480000 	   -0.0667920000
