14
tauto -378.772584821
C   	   -2.4468180000 	   -0.8284630000 	    0.0000510000
C   	   -1.0531870000 	   -0.2656980000 	   -0.0000710000
N   	   -0.9663050000 	    1.1051150000 	   -0.0000200000
C   	    0.2684670000 	    1.7156670000 	    0.0000060000
C   	    1.3796700000 	    0.9636900000 	    0.0000350000
N   	   -0.0311140000 	   -1.0477830000 	   -0.0000600000
C   	    1.2747570000 	   -0.5048290000 	   -0.0000020000
O   	    2.2504100000 	   -1.2290360000 	    0.0000140000
H   	   -3.0011930000 	   -0.5012380000 	   -0.8867980000
H   	   -3.0001360000 	   -0.5031830000 	    0.8882780000
H   	   -2.3808430000 	   -1.9161930000 	   -0.0011460000
H   	   -1.8084650000 	    1.6593050000 	   -0.0001070000
H   	    0.2646770000 	    2.8010560000 	    0.0000210000
H   	    2.3672810000 	    1.4090200000 	    0.0000820000
