23
tauto -645.906933529
C   	    4.1143940000 	    0.0903400000 	    0.9154740000
C   	    3.4868500000 	    0.3109140000 	   -0.4477710000
O   	    2.0705110000 	    0.5331190000 	   -0.3366350000
C   	    1.3146340000 	   -0.5536960000 	   -0.2208910000
C   	   -0.1429340000 	   -0.2621800000 	   -0.1066140000
C   	   -0.9381570000 	   -1.3531180000 	   -0.0344810000
N   	   -2.2897900000 	   -1.2269910000 	    0.0678100000
C   	   -2.8616430000 	    0.0299470000 	    0.0920140000
C   	   -4.3597230000 	    0.0603510000 	    0.1900500000
N   	   -2.1788930000 	    1.1128130000 	    0.0336130000
C   	   -0.7607540000 	    1.0852220000 	   -0.0576770000
O   	   -0.1445950000 	    2.1266920000 	   -0.0871600000
O   	    1.7506040000 	   -1.6902050000 	   -0.2171650000
H   	    5.2016160000 	    0.0046920000 	    0.8155880000
H   	    3.7355380000 	   -0.8313430000 	    1.3651690000
H   	    3.8918120000 	    0.9305020000 	    1.5800590000
H   	    3.6626360000 	   -0.5420510000 	   -1.1085560000
H   	    3.8623920000 	    1.2215940000 	   -0.9190520000
H   	   -0.5223910000 	   -2.3555740000 	   -0.0572160000
H   	   -2.8739770000 	   -2.0479560000 	    0.1184250000
H   	   -4.7025970000 	   -0.4427290000 	    1.1011880000
H   	   -4.8171980000 	   -0.4414730000 	   -0.6700670000
H   	   -4.6852150000 	    1.1000660000 	    0.2115500000
