18
tauto -547.448773592
C   	   -3.5713480000 	   -0.2663230000 	    0.0546280000
C   	   -2.0725290000 	   -0.2878250000 	    0.0378380000
N   	   -1.4412440000 	    0.9078900000 	   -0.1058500000
N   	   -1.4278950000 	   -1.4096470000 	    0.1576660000
C   	   -0.0585560000 	   -1.3193150000 	    0.1466420000
C   	    0.6625410000 	   -0.1735360000 	    0.0132020000
C   	    2.1584010000 	   -0.1692750000 	    0.1228280000
N   	    2.7788470000 	   -1.1912910000 	   -0.5550300000
O   	    2.7631880000 	    0.6265910000 	    0.8103240000
C   	   -0.0434730000 	    1.0934940000 	   -0.1484250000
O   	    0.4147120000 	    2.2012240000 	   -0.3304890000
H   	   -3.9395720000 	    0.3370330000 	    0.8915430000
H   	   -3.9367550000 	   -1.2875970000 	    0.1624180000
H   	   -3.9662190000 	    0.1628620000 	   -0.8726120000
H   	   -1.9786480000 	    1.7614900000 	   -0.2035930000
H   	    0.4599280000 	   -2.2674460000 	    0.2804110000
H   	    2.3317960000 	   -1.5943290000 	   -1.3640710000
H   	    3.7881090000 	   -1.1465140000 	   -0.5705590000
