15
tauto -471.006191185
C   	    3.2230430000 	   -0.0887410000 	    0.0000080000
C   	    1.7308670000 	   -0.2199690000 	   -0.0000590000
N   	    1.0112790000 	    0.9327490000 	   -0.0000940000
C   	   -0.3940220000 	    1.0131950000 	    0.0000130000
O   	   -0.9559300000 	    2.0864650000 	    0.0000910000
N   	    1.1728750000 	   -1.3969420000 	    0.0000170000
C   	   -0.1915940000 	   -1.4223580000 	    0.0000820000
C   	   -0.9932930000 	   -0.3169900000 	    0.0000100000
C   	   -2.4206930000 	   -0.4318030000 	   -0.0000290000
N   	   -3.5718700000 	   -0.5553230000 	   -0.0000580000
H   	    3.5635640000 	    0.4575170000 	   -0.8862330000
H   	    3.6647100000 	   -1.0850490000 	   -0.0008890000
H   	    3.5635650000 	    0.4559330000 	    0.8872180000
H   	    1.4835620000 	    1.8298580000 	   -0.0001310000
H   	   -0.6397960000 	   -2.4133690000 	    0.0001010000
