12
tauto -248.403249419
C   	    1.8175090000 	   -0.0941810000 	    0.3299630000
N   	    0.6927460000 	   -0.4084610000 	   -0.5500860000
C   	   -0.5759670000 	   -0.0228610000 	   -0.0853770000
O   	   -0.7084630000 	    1.3298220000 	    0.0397350000
C   	   -1.5866310000 	   -0.8437740000 	    0.2016360000
H   	    2.7539600000 	   -0.3244880000 	   -0.1852620000
H   	    1.7852180000 	   -0.6444930000 	    1.2817780000
H   	    1.8103200000 	    0.9740660000 	    0.5599050000
H   	    0.6887820000 	   -1.3869380000 	   -0.8108480000
H   	   -0.1373220000 	    1.7287080000 	   -0.6324940000
H   	   -1.4434460000 	   -1.9183600000 	    0.2210140000
H   	   -2.5684910000 	   -0.4429470000 	    0.4212900000
